sim-outorder: SimpleScalar/Alpha Tool Set version 3.0 of August, 2003.
Copyright (c) 1994-2003 by Todd M. Austin, Ph.D. and SimpleScalar, LLC.
All Rights Reserved. This version of SimpleScalar is licensed for academic
non-commercial use.  No portion of this work may be used by any commercial
entity, or for any commercial purpose, without the prior written permission
of SimpleScalar, LLC (info@simplescalar.com).


Processor Parameters:
Issue Width: 4
Window Size: 16
Number of Virtual Registers: 32
Number of Physical Registers: 16
Datapath Width: 64
Total Power Consumption: 73.7882
Branch Predictor Power Consumption: 4.52313  (6.3%)
 branch target buffer power (W): 4.16837
 local predict power (W): 0.0879711
 global predict power (W): 0.0996078
 chooser power (W): 0.0702439
 RAS power (W): 0.0969383
Rename Logic Power Consumption: 0.417965  (0.582%)
 Instruction Decode Power (W): 0.0159915
 RAT decode_power (W): 0.113514
 RAT wordline_power (W): 0.0307815
 RAT bitline_power (W): 0.246771
 DCL Comparators (W): 0.0109075
Instruction Window Power Consumption: 2.20432  (3.07%)
 tagdrive (W): 0.0943488
 tagmatch (W): 0.033695
 Selection Logic (W): 0.0134217
 decode_power (W): 0.0532503
 wordline_power (W): 0.0844643
 bitline_power (W): 1.92514
Load/Store Queue Power Consumption: 0.96318  (1.34%)
 tagdrive (W): 0.457232
 tagmatch (W): 0.100774
 decode_power (W): 0.00799577
 wordline_power (W): 0.0150119
 bitline_power (W): 0.382166
Arch. Register File Power Consumption: 3.57247  (4.98%)
 decode_power (W): 0.113514
 wordline_power (W): 0.0844643
 bitline_power (W): 3.37449
Result Bus Power Consumption: 2.29754  (3.2%)
Total Clock Power: 26.0975  (36.4%)
Int ALU Power: 4.66013  (6.49%)
FP ALU Power: 14.281  (19.9%)
Instruction Cache Power Consumption: 2.21363  (3.08%)
 decode_power (W): 0.779481
 wordline_power (W): 0.028656
 bitline_power (W): 0.886372
 senseamp_power (W): 0.096
 tagarray_power (W): 0.423116
Itlb_power (W): 0.263317 (0.367%)
Data Cache Power Consumption: 5.18303  (7.22%)
 decode_power (W): 0.651055
 wordline_power (W): 0.196735
 bitline_power (W): 2.71235
 senseamp_power (W): 0.768
 tagarray_power (W): 0.854886
Dtlb_power (W): 0.901877 (1.26%)
Level 2 Cache Power Consumption: 4.2091 (5.86%)
 decode_power (W): 0.41817
 wordline_power (W): 0.0430878
 bitline_power (W): 3.0244
 senseamp_power (W): 0.192
 tagarray_power (W): 0.531433
warning: section `.comment' ignored...
sim: command line: ../sim-wattch/sim-outorder -dvfs:interval 1000 compress95.alpha 

sim: simulation started @ Fri Mar  3 01:53:30 2017, options follow:

sim-outorder: This simulator implements a very detailed out-of-order issue
superscalar processor with a two-level memory system and speculative
execution support.  This simulator is a performance simulator, tracking the
latency of all pipeline operations.

# -config                     # load configuration from a file
# -dumpconfig                 # dump configuration to a file
# -h                    false # print help message    
# -v                    false # verbose operation     
# -d                    false # enable debug message  
# -i                    false # start in Dlite debugger
-seed                       1 # random number generator seed (0 for timer seed)
# -q                    false # initialize and terminate immediately
# -chkpt               <null> # restore EIO trace execution from <fname>
# -redir:sim           <null> # redirect simulator output to file (non-interactive only)
# -redir:prog          <null> # redirect simulated program output to file
-nice                       0 # simulator scheduling priority
-max:inst                   0 # maximum number of inst's to execute
-fastfwd                    0 # number of insts skipped before timing starts
# -ptrace              <null> # generate pipetrace, i.e., <fname|stdout|stderr> <range>
-fetch:ifqsize              4 # instruction fetch queue size (in insts)
-fetch:mplat                3 # extra branch mis-prediction latency
-fetch:speed                1 # speed of front-end of machine relative to execution core
-bpred                  bimod # branch predictor type {nottaken|taken|perfect|bimod|2lev|comb}
-bpred:bimod     2048 # bimodal predictor config (<table size>)
-bpred:2lev      1 1024 8 0 # 2-level predictor config (<l1size> <l2size> <hist_size> <xor>)
-bpred:comb      1024 # combining predictor config (<meta_table_size>)
-bpred:ras                  8 # return address stack size (0 for no return stack)
-bpred:btb       512 4 # BTB config (<num_sets> <associativity>)
# -bpred:spec_update       <null> # speculative predictors update in {ID|WB} (default non-spec)
-decode:width               4 # instruction decode B/W (insts/cycle)
-issue:width                4 # instruction issue B/W (insts/cycle)
-issue:inorder          false # run pipeline with in-order issue
-issue:wrongpath         true # issue instructions down wrong execution paths
-commit:width               4 # instruction commit B/W (insts/cycle)
-ruu:size                  16 # register update unit (RUU) size
-lsq:size                   8 # load/store queue (LSQ) size
-cache:dl1       dl1:128:32:4:l # l1 data cache config, i.e., {<config>|none}
-cache:dl1lat               1 # l1 data cache hit latency (in cycles)
-cache:dl2       ul2:1024:64:4:l # l2 data cache config, i.e., {<config>|none}
-cache:dl2lat               6 # l2 data cache hit latency (in cycles)
-cache:il1       il1:512:32:1:l # l1 inst cache config, i.e., {<config>|dl1|dl2|none}
-cache:il1lat               1 # l1 instruction cache hit latency (in cycles)
-cache:il2                dl2 # l2 instruction cache config, i.e., {<config>|dl2|none}
-cache:il2lat               6 # l2 instruction cache hit latency (in cycles)
-cache:flush            false # flush caches on system calls
-cache:icompress        false # convert 64-bit inst addresses to 32-bit inst equivalents
-mem:lat         18 2 # memory access latency (<first_chunk> <inter_chunk>)
-mem:width                  8 # memory access bus width (in bytes)
-tlb:itlb        itlb:16:4096:4:l # instruction TLB config, i.e., {<config>|none}
-tlb:dtlb        dtlb:32:4096:4:l # data TLB config, i.e., {<config>|none}
-tlb:lat                   30 # inst/data TLB miss latency (in cycles)
-res:ialu                   4 # total number of integer ALU's available
-res:imult                  1 # total number of integer multiplier/dividers available
-res:memport                2 # total number of memory system ports available (to CPU)
-res:fpalu                  4 # total number of floating point ALU's available
-res:fpmult                 1 # total number of floating point multiplier/dividers available
# -pcstat              <null> # profile stat(s) against text addr's (mult uses ok)
-bugcompat              false # operate in backward-compatible bugs mode (for testing only)
-dvfs:interval           1000 # DVFS Internals        
-dvfs:target_power      72.0000 # DVFS TargetPower      

  Pipetrace range arguments are formatted as follows:

    {{@|#}<start>}:{{@|#|+}<end>}

  Both ends of the range are optional, if neither are specified, the entire
  execution is traced.  Ranges that start with a `@' designate an address
  range to be traced, those that start with an `#' designate a cycle count
  range.  All other range values represent an instruction count range.  The
  second argument, if specified with a `+', indicates a value relative
  to the first argument, e.g., 1000:+100 == 1000:1100.  Program symbols may
  be used in all contexts.

    Examples:   -ptrace FOO.trc #0:#1000
                -ptrace BAR.trc @2000:
                -ptrace BLAH.trc :1500
                -ptrace UXXE.trc :
                -ptrace FOOBAR.trc @main:+278

  Branch predictor configuration examples for 2-level predictor:
    Configurations:   N, M, W, X
      N   # entries in first level (# of shift register(s))
      W   width of shift register(s)
      M   # entries in 2nd level (# of counters, or other FSM)
      X   (yes-1/no-0) xor history and address for 2nd level index
    Sample predictors:
      GAg     : 1, W, 2^W, 0
      GAp     : 1, W, M (M > 2^W), 0
      PAg     : N, W, 2^W, 0
      PAp     : N, W, M (M == 2^(N+W)), 0
      gshare  : 1, W, 2^W, 1
  Predictor `comb' combines a bimodal and a 2-level predictor.

  The cache config parameter <config> has the following format:

    <name>:<nsets>:<bsize>:<assoc>:<repl>

    <name>   - name of the cache being defined
    <nsets>  - number of sets in the cache
    <bsize>  - block size of the cache
    <assoc>  - associativity of the cache
    <repl>   - block replacement strategy, 'l'-LRU, 'f'-FIFO, 'r'-random

    Examples:   -cache:dl1 dl1:4096:32:1:l
                -dtlb dtlb:128:4096:32:r

  Cache levels can be unified by pointing a level of the instruction cache
  hierarchy at the data cache hiearchy using the "dl1" and "dl2" cache
  configuration arguments.  Most sensible combinations are supported, e.g.,

    A unified l2 cache (il2 is pointed at dl2):
      -cache:il1 il1:128:64:1:l -cache:il2 dl2
      -cache:dl1 dl1:256:32:1:l -cache:dl2 ul2:1024:64:2:l

    Or, a fully unified cache hierarchy (il1 pointed at dl1):
      -cache:il1 dl1
      -cache:dl1 ul1:256:32:1:l -cache:dl2 ul2:1024:64:2:l



sim: ** starting performance simulation **
warning: partially supported sigaction() call...

Processor Parameters:
Issue Width: 4
Window Size: 16
Number of Virtual Registers: 32
Number of Physical Registers: 16
Datapath Width: 64
Total Power Consumption: 147.917
Branch Predictor Power Consumption: 8.82607  (6.05%)
 branch target buffer power (W): 8.19539
 local predict power (W): 0.142179
 global predict power (W): 0.153745
 chooser power (W): 0.121779
 RAS power (W): 0.212974
Rename Logic Power Consumption: 0.91827  (0.629%)
 Instruction Decode Power (W): 0.0351334
 RAT decode_power (W): 0.249391
 RAT wordline_power (W): 0.067627
 RAT bitline_power (W): 0.542155
 DCL Comparators (W): 0.0239638
Instruction Window Power Consumption: 4.84289  (3.32%)
 tagdrive (W): 0.207284
 tagmatch (W): 0.0740279
 Selection Logic (W): 0.0294875
 decode_power (W): 0.116991
 wordline_power (W): 0.185568
 bitline_power (W): 4.22953
Load/Store Queue Power Consumption: 2.11611  (1.45%)
 tagdrive (W): 1.00454
 tagmatch (W): 0.2214
 decode_power (W): 0.0175667
 wordline_power (W): 0.0329811
 bitline_power (W): 0.839619
Arch. Register File Power Consumption: 7.84872  (5.38%)
 decode_power (W): 0.249391
 wordline_power (W): 0.185568
 bitline_power (W): 7.41376
Result Bus Power Consumption: 5.0477  (3.46%)
Total Clock Power: 57.3361  (39.3%)
Int ALU Power: 10.2383  (7.02%)
FP ALU Power: 31.3755  (21.5%)
Instruction Cache Power Consumption: 3.41445  (2.34%)
 decode_power (W): 1.71252
 wordline_power (W): 0.0629572
 bitline_power (W): 0.886372
 senseamp_power (W): 0.096
 tagarray_power (W): 0.656597
Itlb_power (W): 0.562102 (0.385%)
Data Cache Power Consumption: 6.45145  (4.42%)
 decode_power (W): 1.43037
 wordline_power (W): 0.432228
 bitline_power (W): 2.71235
 senseamp_power (W): 0.768
 tagarray_power (W): 1.1085
Dtlb_power (W): 1.93161 (1.32%)
Level 2 Cache Power Consumption: 5.00804 (3.43%)
 decode_power (W): 0.91872
 wordline_power (W): 0.0946638
 bitline_power (W): 3.0244
 senseamp_power (W): 0.192
 tagarray_power (W): 0.778248

Processor Parameters:
Issue Width: 4
Window Size: 16
Number of Virtual Registers: 32
Number of Physical Registers: 16
Datapath Width: 64
Total Power Consumption: 316.117
Branch Predictor Power Consumption: 18.5895  (5.92%)
 branch target buffer power (W): 17.3327
 local predict power (W): 0.265178
 global predict power (W): 0.276582
 chooser power (W): 0.238713
 RAS power (W): 0.476258
Rename Logic Power Consumption: 2.05346  (0.654%)
 Instruction Decode Power (W): 0.0785664
 RAT decode_power (W): 0.557696
 RAT wordline_power (W): 0.15123
 RAT bitline_power (W): 1.21238
 DCL Comparators (W): 0.0535887
Instruction Window Power Consumption: 10.8298  (3.45%)
 tagdrive (W): 0.463536
 tagmatch (W): 0.165544
 Selection Logic (W): 0.0659408
 decode_power (W): 0.261619
 wordline_power (W): 0.414973
 bitline_power (W): 9.45821
Load/Store Queue Power Consumption: 4.7321  (1.51%)
 tagdrive (W): 2.24638
 tagmatch (W): 0.495101
 decode_power (W): 0.0392832
 wordline_power (W): 0.0737534
 bitline_power (W): 1.87758
Arch. Register File Power Consumption: 17.5516  (5.59%)
 decode_power (W): 0.557696
 wordline_power (W): 0.414973
 bitline_power (W): 16.5789
Result Bus Power Consumption: 11.2878  (3.59%)
Total Clock Power: 128.217  (40.8%)
Int ALU Power: 22.8952  (7.29%)
FP ALU Power: 70.1628  (22.3%)
Instruction Cache Power Consumption: 6.13912  (1.95%)
 decode_power (W): 3.82959
 wordline_power (W): 0.140787
 bitline_power (W): 0.886372
 senseamp_power (W): 0.096
 tagarray_power (W): 1.18637
Itlb_power (W): 1.24005 (0.395%)
Data Cache Power Consumption: 9.32949  (2.97%)
 decode_power (W): 3.19863
 wordline_power (W): 0.966561
 bitline_power (W): 2.71235
 senseamp_power (W): 0.768
 tagarray_power (W): 1.68395
Dtlb_power (W): 4.26807 (1.36%)
Level 2 Cache Power Consumption: 6.82084 (2.17%)
 decode_power (W): 2.05447
 wordline_power (W): 0.21169
 bitline_power (W): 3.0244
 senseamp_power (W): 0.192
 tagarray_power (W): 1.33827

Processor Parameters:
Issue Width: 4
Window Size: 16
Number of Virtual Registers: 32
Number of Physical Registers: 16
Datapath Width: 64
Total Power Consumption: 94.2867
Branch Predictor Power Consumption: 5.713  (6.19%)
 branch target buffer power (W): 5.28194
 local predict power (W): 0.102961
 global predict power (W): 0.114578
 chooser power (W): 0.0844947
 RAS power (W): 0.129025
Rename Logic Power Consumption: 0.556312  (0.603%)
 Instruction Decode Power (W): 0.0212847
 RAT decode_power (W): 0.151088
 RAT wordline_power (W): 0.0409702
 RAT bitline_power (W): 0.328452
 DCL Comparators (W): 0.0145179
Instruction Window Power Consumption: 2.93395  (3.18%)
 tagdrive (W): 0.125578
 tagmatch (W): 0.044848
 Selection Logic (W): 0.0178643
 decode_power (W): 0.0708762
 wordline_power (W): 0.112422
 bitline_power (W): 2.56236
Load/Store Queue Power Consumption: 1.28199  (1.39%)
 tagdrive (W): 0.608576
 tagmatch (W): 0.13413
 decode_power (W): 0.0106424
 wordline_power (W): 0.0199808
 bitline_power (W): 0.508663
Arch. Register File Power Consumption: 4.75496  (5.15%)
 decode_power (W): 0.151088
 wordline_power (W): 0.112422
 bitline_power (W): 4.49145
Result Bus Power Consumption: 3.05803  (3.31%)
Total Clock Power: 34.7357  (37.6%)
Int ALU Power: 6.20263  (6.72%)
FP ALU Power: 19.0081  (20.6%)
Instruction Cache Power Consumption: 2.54568  (2.76%)
 decode_power (W): 1.03749
 wordline_power (W): 0.0381411
 bitline_power (W): 0.886372
 senseamp_power (W): 0.096
 tagarray_power (W): 0.487679
Itlb_power (W): 0.345938 (0.375%)
Data Cache Power Consumption: 5.53378  (6%)
 decode_power (W): 0.866554
 wordline_power (W): 0.261855
 bitline_power (W): 2.71235
 senseamp_power (W): 0.768
 tagarray_power (W): 0.925016
Dtlb_power (W): 1.18662 (1.29%)
Level 2 Cache Power Consumption: 4.43002 (4.8%)
 decode_power (W): 0.556585
 wordline_power (W): 0.0573498
 bitline_power (W): 3.0244
 senseamp_power (W): 0.192
 tagarray_power (W): 0.599684

Processor Parameters:
Issue Width: 4
Window Size: 16
Number of Virtual Registers: 32
Number of Physical Registers: 16
Datapath Width: 64
Total Power Consumption: 507.292
Branch Predictor Power Consumption: 29.6865  (5.88%)
 branch target buffer power (W): 27.7182
 local predict power (W): 0.404978
 global predict power (W): 0.416199
 chooser power (W): 0.37162
 RAS power (W): 0.775507
Rename Logic Power Consumption: 3.34372  (0.662%)
 Instruction Decode Power (W): 0.127932
 RAT decode_power (W): 0.908115
 RAT wordline_power (W): 0.246252
 RAT bitline_power (W): 1.97416
 DCL Comparators (W): 0.0872602
Instruction Window Power Consumption: 17.6346  (3.49%)
 tagdrive (W): 0.75479
 tagmatch (W): 0.26956
 Selection Logic (W): 0.107374
 decode_power (W): 0.426003
 wordline_power (W): 0.675714
 bitline_power (W): 15.4011
Load/Store Queue Power Consumption: 7.70544  (1.52%)
 tagdrive (W): 3.65786
 tagmatch (W): 0.806189
 decode_power (W): 0.0639661
 wordline_power (W): 0.120095
 bitline_power (W): 3.05733
Arch. Register File Power Consumption: 28.5798  (5.66%)
 decode_power (W): 0.908115
 wordline_power (W): 0.675714
 bitline_power (W): 26.9959
Result Bus Power Consumption: 18.3803  (3.64%)
Total Clock Power: 208.78  (41.3%)
Int ALU Power: 37.281  (7.38%)
FP ALU Power: 114.248  (22.6%)
Instruction Cache Power Consumption: 9.23597  (1.83%)
 decode_power (W): 6.23585
 wordline_power (W): 0.229248
 bitline_power (W): 0.886372
 senseamp_power (W): 0.096
 tagarray_power (W): 1.7885
Itlb_power (W): 2.0106 (0.398%)
Data Cache Power Consumption: 12.6007  (2.49%)
 decode_power (W): 5.20844
 wordline_power (W): 1.57388
 bitline_power (W): 2.71235
 senseamp_power (W): 0.768
 tagarray_power (W): 2.338
Dtlb_power (W): 6.92369 (1.37%)
Level 2 Cache Power Consumption: 8.88126 (1.76%)
 decode_power (W): 3.34536
 wordline_power (W): 0.344702
 bitline_power (W): 3.0244
 senseamp_power (W): 0.192
 tagarray_power (W): 1.9748

Processor Parameters:
Issue Width: 4
Window Size: 16
Number of Virtual Registers: 32
Number of Physical Registers: 16
Datapath Width: 64
Total Power Consumption: 265.521
Branch Predictor Power Consumption: 15.6525  (5.94%)
 branch target buffer power (W): 14.5841
 local predict power (W): 0.228179
 global predict power (W): 0.239632
 chooser power (W): 0.203538
 RAS power (W): 0.397059
Rename Logic Power Consumption: 1.71199  (0.65%)
 Instruction Decode Power (W): 0.0655013
 RAT decode_power (W): 0.464955
 RAT wordline_power (W): 0.126081
 RAT bitline_power (W): 1.01077
 DCL Comparators (W): 0.0446772
Instruction Window Power Consumption: 9.02889  (3.43%)
 tagdrive (W): 0.386453
 tagmatch (W): 0.138015
 Selection Logic (W): 0.0549752
 decode_power (W): 0.218113
 wordline_power (W): 0.345966
 bitline_power (W): 7.88537
Load/Store Queue Power Consumption: 3.94519  (1.5%)
 tagdrive (W): 1.87282
 tagmatch (W): 0.412769
 decode_power (W): 0.0327507
 wordline_power (W): 0.0614887
 bitline_power (W): 1.56535
Arch. Register File Power Consumption: 14.6328  (5.55%)
 decode_power (W): 0.464955
 wordline_power (W): 0.345966
 bitline_power (W): 13.8219
Result Bus Power Consumption: 9.41074  (3.57%)
Total Clock Power: 106.895  (40.6%)
Int ALU Power: 19.0879  (7.24%)
FP ALU Power: 58.4952  (22.2%)
Instruction Cache Power Consumption: 5.31951  (2.02%)
 decode_power (W): 3.19275
 wordline_power (W): 0.117375
 bitline_power (W): 0.886372
 senseamp_power (W): 0.096
 tagarray_power (W): 1.02701
Itlb_power (W): 1.03611 (0.393%)
Data Cache Power Consumption: 8.46375  (3.21%)
 decode_power (W): 2.66672
 wordline_power (W): 0.805828
 bitline_power (W): 2.71235
 senseamp_power (W): 0.768
 tagarray_power (W): 1.51085
Dtlb_power (W): 3.56524 (1.35%)
Level 2 Cache Power Consumption: 6.27553 (2.38%)
 decode_power (W): 1.71283
 wordline_power (W): 0.176487
 bitline_power (W): 3.0244
 senseamp_power (W): 0.192
 tagarray_power (W): 1.16981

Processor Parameters:
Issue Width: 4
Window Size: 16
Number of Virtual Registers: 32
Number of Physical Registers: 16
Datapath Width: 64
Total Power Consumption: 118.873
Branch Predictor Power Consumption: 7.14012  (6.11%)
 branch target buffer power (W): 6.61755
 local predict power (W): 0.12094
 global predict power (W): 0.132533
 chooser power (W): 0.101587
 RAS power (W): 0.167509
Rename Logic Power Consumption: 0.722244  (0.618%)
 Instruction Decode Power (W): 0.0276334
 RAT decode_power (W): 0.196153
 RAT wordline_power (W): 0.0531905
 RAT bitline_power (W): 0.426419
 DCL Comparators (W): 0.0188482
Instruction Window Power Consumption: 3.80906  (3.26%)
 tagdrive (W): 0.163035
 tagmatch (W): 0.058225
 Selection Logic (W): 0.0231927
 decode_power (W): 0.0920166
 wordline_power (W): 0.145954
 bitline_power (W): 3.32664
Load/Store Queue Power Consumption: 1.66438  (1.42%)
 tagdrive (W): 0.790098
 tagmatch (W): 0.174137
 decode_power (W): 0.0138167
 wordline_power (W): 0.0259406
 bitline_power (W): 0.660383
Arch. Register File Power Consumption: 6.17323  (5.28%)
 decode_power (W): 0.196153
 wordline_power (W): 0.145954
 bitline_power (W): 5.83112
Result Bus Power Consumption: 3.97015  (3.4%)
Total Clock Power: 45.0964  (38.6%)
Int ALU Power: 8.05271  (6.89%)
FP ALU Power: 24.6776  (21.1%)
Instruction Cache Power Consumption: 2.94395  (2.52%)
 decode_power (W): 1.34694
 wordline_power (W): 0.0495176
 bitline_power (W): 0.886372
 senseamp_power (W): 0.096
 tagarray_power (W): 0.565116
Itlb_power (W): 0.445034 (0.381%)
Data Cache Power Consumption: 5.95446  (5.09%)
 decode_power (W): 1.12502
 wordline_power (W): 0.339959
 bitline_power (W): 2.71235
 senseamp_power (W): 0.768
 tagarray_power (W): 1.00913
Dtlb_power (W): 1.52815 (1.31%)
Level 2 Cache Power Consumption: 4.695 (4.02%)
 decode_power (W): 0.722598
 wordline_power (W): 0.0744556
 bitline_power (W): 3.0244
 senseamp_power (W): 0.192
 tagarray_power (W): 0.681543

Processor Parameters:
Issue Width: 4
Window Size: 16
Number of Virtual Registers: 32
Number of Physical Registers: 16
Datapath Width: 64
Total Power Consumption: 73.7882
Branch Predictor Power Consumption: 4.52313  (6.3%)
 branch target buffer power (W): 4.16837
 local predict power (W): 0.0879711
 global predict power (W): 0.0996078
 chooser power (W): 0.0702439
 RAS power (W): 0.0969383
Rename Logic Power Consumption: 0.417965  (0.582%)
 Instruction Decode Power (W): 0.0159915
 RAT decode_power (W): 0.113514
 RAT wordline_power (W): 0.0307815
 RAT bitline_power (W): 0.246771
 DCL Comparators (W): 0.0109075
Instruction Window Power Consumption: 2.20432  (3.07%)
 tagdrive (W): 0.0943488
 tagmatch (W): 0.033695
 Selection Logic (W): 0.0134217
 decode_power (W): 0.0532503
 wordline_power (W): 0.0844643
 bitline_power (W): 1.92514
Load/Store Queue Power Consumption: 0.96318  (1.34%)
 tagdrive (W): 0.457232
 tagmatch (W): 0.100774
 decode_power (W): 0.00799577
 wordline_power (W): 0.0150119
 bitline_power (W): 0.382166
Arch. Register File Power Consumption: 3.57247  (4.98%)
 decode_power (W): 0.113514
 wordline_power (W): 0.0844643
 bitline_power (W): 3.37449
Result Bus Power Consumption: 2.29754  (3.2%)
Total Clock Power: 26.0975  (36.4%)
Int ALU Power: 4.66013  (6.49%)
FP ALU Power: 14.281  (19.9%)
Instruction Cache Power Consumption: 2.21363  (3.08%)
 decode_power (W): 0.779481
 wordline_power (W): 0.028656
 bitline_power (W): 0.886372
 senseamp_power (W): 0.096
 tagarray_power (W): 0.423116
Itlb_power (W): 0.263317 (0.367%)
Data Cache Power Consumption: 5.18303  (7.22%)
 decode_power (W): 0.651055
 wordline_power (W): 0.196735
 bitline_power (W): 2.71235
 senseamp_power (W): 0.768
 tagarray_power (W): 0.854886
Dtlb_power (W): 0.901877 (1.26%)
Level 2 Cache Power Consumption: 4.2091 (5.86%)
 decode_power (W): 0.41817
 wordline_power (W): 0.0430878
 bitline_power (W): 3.0244
 senseamp_power (W): 0.192
 tagarray_power (W): 0.531433

Processor Parameters:
Issue Width: 4
Window Size: 16
Number of Virtual Registers: 32
Number of Physical Registers: 16
Datapath Width: 64
Total Power Consumption: 73.7882
Branch Predictor Power Consumption: 4.52313  (6.3%)
 branch target buffer power (W): 4.16837
 local predict power (W): 0.0879711
 global predict power (W): 0.0996078
 chooser power (W): 0.0702439
 RAS power (W): 0.0969383
Rename Logic Power Consumption: 0.417965  (0.582%)
 Instruction Decode Power (W): 0.0159915
 RAT decode_power (W): 0.113514
 RAT wordline_power (W): 0.0307815
 RAT bitline_power (W): 0.246771
 DCL Comparators (W): 0.0109075
Instruction Window Power Consumption: 2.20432  (3.07%)
 tagdrive (W): 0.0943488
 tagmatch (W): 0.033695
 Selection Logic (W): 0.0134217
 decode_power (W): 0.0532503
 wordline_power (W): 0.0844643
 bitline_power (W): 1.92514
Load/Store Queue Power Consumption: 0.96318  (1.34%)
 tagdrive (W): 0.457232
 tagmatch (W): 0.100774
 decode_power (W): 0.00799577
 wordline_power (W): 0.0150119
 bitline_power (W): 0.382166
Arch. Register File Power Consumption: 3.57247  (4.98%)
 decode_power (W): 0.113514
 wordline_power (W): 0.0844643
 bitline_power (W): 3.37449
Result Bus Power Consumption: 2.29754  (3.2%)
Total Clock Power: 26.0975  (36.4%)
Int ALU Power: 4.66013  (6.49%)
FP ALU Power: 14.281  (19.9%)
Instruction Cache Power Consumption: 2.21363  (3.08%)
 decode_power (W): 0.779481
 wordline_power (W): 0.028656
 bitline_power (W): 0.886372
 senseamp_power (W): 0.096
 tagarray_power (W): 0.423116
Itlb_power (W): 0.263317 (0.367%)
Data Cache Power Consumption: 5.18303  (7.22%)
 decode_power (W): 0.651055
 wordline_power (W): 0.196735
 bitline_power (W): 2.71235
 senseamp_power (W): 0.768
 tagarray_power (W): 0.854886
Dtlb_power (W): 0.901877 (1.26%)
Level 2 Cache Power Consumption: 4.2091 (5.86%)
 decode_power (W): 0.41817
 wordline_power (W): 0.0430878
 bitline_power (W): 3.0244
 senseamp_power (W): 0.192
 tagarray_power (W): 0.531433

Processor Parameters:
Issue Width: 4
Window Size: 16
Number of Virtual Registers: 32
Number of Physical Registers: 16
Datapath Width: 64
Total Power Consumption: 94.2867
Branch Predictor Power Consumption: 5.713  (6.19%)
 branch target buffer power (W): 5.28194
 local predict power (W): 0.102961
 global predict power (W): 0.114578
 chooser power (W): 0.0844947
 RAS power (W): 0.129025
Rename Logic Power Consumption: 0.556312  (0.603%)
 Instruction Decode Power (W): 0.0212847
 RAT decode_power (W): 0.151088
 RAT wordline_power (W): 0.0409702
 RAT bitline_power (W): 0.328452
 DCL Comparators (W): 0.0145179
Instruction Window Power Consumption: 2.93395  (3.18%)
 tagdrive (W): 0.125578
 tagmatch (W): 0.044848
 Selection Logic (W): 0.0178643
 decode_power (W): 0.0708762
 wordline_power (W): 0.112422
 bitline_power (W): 2.56236
Load/Store Queue Power Consumption: 1.28199  (1.39%)
 tagdrive (W): 0.608576
 tagmatch (W): 0.13413
 decode_power (W): 0.0106424
 wordline_power (W): 0.0199808
 bitline_power (W): 0.508663
Arch. Register File Power Consumption: 4.75496  (5.15%)
 decode_power (W): 0.151088
 wordline_power (W): 0.112422
 bitline_power (W): 4.49145
Result Bus Power Consumption: 3.05803  (3.31%)
Total Clock Power: 34.7357  (37.6%)
Int ALU Power: 6.20263  (6.72%)
FP ALU Power: 19.0081  (20.6%)
Instruction Cache Power Consumption: 2.54568  (2.76%)
 decode_power (W): 1.03749
 wordline_power (W): 0.0381411
 bitline_power (W): 0.886372
 senseamp_power (W): 0.096
 tagarray_power (W): 0.487679
Itlb_power (W): 0.345938 (0.375%)
Data Cache Power Consumption: 5.53378  (6%)
 decode_power (W): 0.866554
 wordline_power (W): 0.261855
 bitline_power (W): 2.71235
 senseamp_power (W): 0.768
 tagarray_power (W): 0.925016
Dtlb_power (W): 1.18662 (1.29%)
Level 2 Cache Power Consumption: 4.43002 (4.8%)
 decode_power (W): 0.556585
 wordline_power (W): 0.0573498
 bitline_power (W): 3.0244
 senseamp_power (W): 0.192
 tagarray_power (W): 0.599684

Processor Parameters:
Issue Width: 4
Window Size: 16
Number of Virtual Registers: 32
Number of Physical Registers: 16
Datapath Width: 64
Total Power Consumption: 94.2867
Branch Predictor Power Consumption: 5.713  (6.19%)
 branch target buffer power (W): 5.28194
 local predict power (W): 0.102961
 global predict power (W): 0.114578
 chooser power (W): 0.0844947
 RAS power (W): 0.129025
Rename Logic Power Consumption: 0.556312  (0.603%)
 Instruction Decode Power (W): 0.0212847
 RAT decode_power (W): 0.151088
 RAT wordline_power (W): 0.0409702
 RAT bitline_power (W): 0.328452
 DCL Comparators (W): 0.0145179
Instruction Window Power Consumption: 2.93395  (3.18%)
 tagdrive (W): 0.125578
 tagmatch (W): 0.044848
 Selection Logic (W): 0.0178643
 decode_power (W): 0.0708762
 wordline_power (W): 0.112422
 bitline_power (W): 2.56236
Load/Store Queue Power Consumption: 1.28199  (1.39%)
 tagdrive (W): 0.608576
 tagmatch (W): 0.13413
 decode_power (W): 0.0106424
 wordline_power (W): 0.0199808
 bitline_power (W): 0.508663
Arch. Register File Power Consumption: 4.75496  (5.15%)
 decode_power (W): 0.151088
 wordline_power (W): 0.112422
 bitline_power (W): 4.49145
Result Bus Power Consumption: 3.05803  (3.31%)
Total Clock Power: 34.7357  (37.6%)
Int ALU Power: 6.20263  (6.72%)
FP ALU Power: 19.0081  (20.6%)
Instruction Cache Power Consumption: 2.54568  (2.76%)
 decode_power (W): 1.03749
 wordline_power (W): 0.0381411
 bitline_power (W): 0.886372
 senseamp_power (W): 0.096
 tagarray_power (W): 0.487679
Itlb_power (W): 0.345938 (0.375%)
Data Cache Power Consumption: 5.53378  (6%)
 decode_power (W): 0.866554
 wordline_power (W): 0.261855
 bitline_power (W): 2.71235
 senseamp_power (W): 0.768
 tagarray_power (W): 0.925016
Dtlb_power (W): 1.18662 (1.29%)
Level 2 Cache Power Consumption: 4.43002 (4.8%)
 decode_power (W): 0.556585
 wordline_power (W): 0.0573498
 bitline_power (W): 3.0244
 senseamp_power (W): 0.192
 tagarray_power (W): 0.599684

Processor Parameters:
Issue Width: 4
Window Size: 16
Number of Virtual Registers: 32
Number of Physical Registers: 16
Datapath Width: 64
Total Power Consumption: 94.2867
Branch Predictor Power Consumption: 5.713  (6.19%)
 branch target buffer power (W): 5.28194
 local predict power (W): 0.102961
 global predict power (W): 0.114578
 chooser power (W): 0.0844947
 RAS power (W): 0.129025
Rename Logic Power Consumption: 0.556312  (0.603%)
 Instruction Decode Power (W): 0.0212847
 RAT decode_power (W): 0.151088
 RAT wordline_power (W): 0.0409702
 RAT bitline_power (W): 0.328452
 DCL Comparators (W): 0.0145179
Instruction Window Power Consumption: 2.93395  (3.18%)
 tagdrive (W): 0.125578
 tagmatch (W): 0.044848
 Selection Logic (W): 0.0178643
 decode_power (W): 0.0708762
 wordline_power (W): 0.112422
 bitline_power (W): 2.56236
Load/Store Queue Power Consumption: 1.28199  (1.39%)
 tagdrive (W): 0.608576
 tagmatch (W): 0.13413
 decode_power (W): 0.0106424
 wordline_power (W): 0.0199808
 bitline_power (W): 0.508663
Arch. Register File Power Consumption: 4.75496  (5.15%)
 decode_power (W): 0.151088
 wordline_power (W): 0.112422
 bitline_power (W): 4.49145
Result Bus Power Consumption: 3.05803  (3.31%)
Total Clock Power: 34.7357  (37.6%)
Int ALU Power: 6.20263  (6.72%)
FP ALU Power: 19.0081  (20.6%)
Instruction Cache Power Consumption: 2.54568  (2.76%)
 decode_power (W): 1.03749
 wordline_power (W): 0.0381411
 bitline_power (W): 0.886372
 senseamp_power (W): 0.096
 tagarray_power (W): 0.487679
Itlb_power (W): 0.345938 (0.375%)
Data Cache Power Consumption: 5.53378  (6%)
 decode_power (W): 0.866554
 wordline_power (W): 0.261855
 bitline_power (W): 2.71235
 senseamp_power (W): 0.768
 tagarray_power (W): 0.925016
Dtlb_power (W): 1.18662 (1.29%)
Level 2 Cache Power Consumption: 4.43002 (4.8%)
 decode_power (W): 0.556585
 wordline_power (W): 0.0573498
 bitline_power (W): 3.0244
 senseamp_power (W): 0.192
 tagarray_power (W): 0.599684

Processor Parameters:
Issue Width: 4
Window Size: 16
Number of Virtual Registers: 32
Number of Physical Registers: 16
Datapath Width: 64
Total Power Consumption: 94.2867
Branch Predictor Power Consumption: 5.713  (6.19%)
 branch target buffer power (W): 5.28194
 local predict power (W): 0.102961
 global predict power (W): 0.114578
 chooser power (W): 0.0844947
 RAS power (W): 0.129025
Rename Logic Power Consumption: 0.556312  (0.603%)
 Instruction Decode Power (W): 0.0212847
 RAT decode_power (W): 0.151088
 RAT wordline_power (W): 0.0409702
 RAT bitline_power (W): 0.328452
 DCL Comparators (W): 0.0145179
Instruction Window Power Consumption: 2.93395  (3.18%)
 tagdrive (W): 0.125578
 tagmatch (W): 0.044848
 Selection Logic (W): 0.0178643
 decode_power (W): 0.0708762
 wordline_power (W): 0.112422
 bitline_power (W): 2.56236
Load/Store Queue Power Consumption: 1.28199  (1.39%)
 tagdrive (W): 0.608576
 tagmatch (W): 0.13413
 decode_power (W): 0.0106424
 wordline_power (W): 0.0199808
 bitline_power (W): 0.508663
Arch. Register File Power Consumption: 4.75496  (5.15%)
 decode_power (W): 0.151088
 wordline_power (W): 0.112422
 bitline_power (W): 4.49145
Result Bus Power Consumption: 3.05803  (3.31%)
Total Clock Power: 34.7357  (37.6%)
Int ALU Power: 6.20263  (6.72%)
FP ALU Power: 19.0081  (20.6%)
Instruction Cache Power Consumption: 2.54568  (2.76%)
 decode_power (W): 1.03749
 wordline_power (W): 0.0381411
 bitline_power (W): 0.886372
 senseamp_power (W): 0.096
 tagarray_power (W): 0.487679
Itlb_power (W): 0.345938 (0.375%)
Data Cache Power Consumption: 5.53378  (6%)
 decode_power (W): 0.866554
 wordline_power (W): 0.261855
 bitline_power (W): 2.71235
 senseamp_power (W): 0.768
 tagarray_power (W): 0.925016
Dtlb_power (W): 1.18662 (1.29%)
Level 2 Cache Power Consumption: 4.43002 (4.8%)
 decode_power (W): 0.556585
 wordline_power (W): 0.0573498
 bitline_power (W): 3.0244
 senseamp_power (W): 0.192
 tagarray_power (W): 0.599684

Processor Parameters:
Issue Width: 4
Window Size: 16
Number of Virtual Registers: 32
Number of Physical Registers: 16
Datapath Width: 64
Total Power Consumption: 94.2867
Branch Predictor Power Consumption: 5.713  (6.19%)
 branch target buffer power (W): 5.28194
 local predict power (W): 0.102961
 global predict power (W): 0.114578
 chooser power (W): 0.0844947
 RAS power (W): 0.129025
Rename Logic Power Consumption: 0.556312  (0.603%)
 Instruction Decode Power (W): 0.0212847
 RAT decode_power (W): 0.151088
 RAT wordline_power (W): 0.0409702
 RAT bitline_power (W): 0.328452
 DCL Comparators (W): 0.0145179
Instruction Window Power Consumption: 2.93395  (3.18%)
 tagdrive (W): 0.125578
 tagmatch (W): 0.044848
 Selection Logic (W): 0.0178643
 decode_power (W): 0.0708762
 wordline_power (W): 0.112422
 bitline_power (W): 2.56236
Load/Store Queue Power Consumption: 1.28199  (1.39%)
 tagdrive (W): 0.608576
 tagmatch (W): 0.13413
 decode_power (W): 0.0106424
 wordline_power (W): 0.0199808
 bitline_power (W): 0.508663
Arch. Register File Power Consumption: 4.75496  (5.15%)
 decode_power (W): 0.151088
 wordline_power (W): 0.112422
 bitline_power (W): 4.49145
Result Bus Power Consumption: 3.05803  (3.31%)
Total Clock Power: 34.7357  (37.6%)
Int ALU Power: 6.20263  (6.72%)
FP ALU Power: 19.0081  (20.6%)
Instruction Cache Power Consumption: 2.54568  (2.76%)
 decode_power (W): 1.03749
 wordline_power (W): 0.0381411
 bitline_power (W): 0.886372
 senseamp_power (W): 0.096
 tagarray_power (W): 0.487679
Itlb_power (W): 0.345938 (0.375%)
Data Cache Power Consumption: 5.53378  (6%)
 decode_power (W): 0.866554
 wordline_power (W): 0.261855
 bitline_power (W): 2.71235
 senseamp_power (W): 0.768
 tagarray_power (W): 0.925016
Dtlb_power (W): 1.18662 (1.29%)
Level 2 Cache Power Consumption: 4.43002 (4.8%)
 decode_power (W): 0.556585
 wordline_power (W): 0.0573498
 bitline_power (W): 3.0244
 senseamp_power (W): 0.192
 tagarray_power (W): 0.599684

Processor Parameters:
Issue Width: 4
Window Size: 16
Number of Virtual Registers: 32
Number of Physical Registers: 16
Datapath Width: 64
Total Power Consumption: 94.2867
Branch Predictor Power Consumption: 5.713  (6.19%)
 branch target buffer power (W): 5.28194
 local predict power (W): 0.102961
 global predict power (W): 0.114578
 chooser power (W): 0.0844947
 RAS power (W): 0.129025
Rename Logic Power Consumption: 0.556312  (0.603%)
 Instruction Decode Power (W): 0.0212847
 RAT decode_power (W): 0.151088
 RAT wordline_power (W): 0.0409702
 RAT bitline_power (W): 0.328452
 DCL Comparators (W): 0.0145179
Instruction Window Power Consumption: 2.93395  (3.18%)
 tagdrive (W): 0.125578
 tagmatch (W): 0.044848
 Selection Logic (W): 0.0178643
 decode_power (W): 0.0708762
 wordline_power (W): 0.112422
 bitline_power (W): 2.56236
Load/Store Queue Power Consumption: 1.28199  (1.39%)
 tagdrive (W): 0.608576
 tagmatch (W): 0.13413
 decode_power (W): 0.0106424
 wordline_power (W): 0.0199808
 bitline_power (W): 0.508663
Arch. Register File Power Consumption: 4.75496  (5.15%)
 decode_power (W): 0.151088
 wordline_power (W): 0.112422
 bitline_power (W): 4.49145
Result Bus Power Consumption: 3.05803  (3.31%)
Total Clock Power: 34.7357  (37.6%)
Int ALU Power: 6.20263  (6.72%)
FP ALU Power: 19.0081  (20.6%)
Instruction Cache Power Consumption: 2.54568  (2.76%)
 decode_power (W): 1.03749
 wordline_power (W): 0.0381411
 bitline_power (W): 0.886372
 senseamp_power (W): 0.096
 tagarray_power (W): 0.487679
Itlb_power (W): 0.345938 (0.375%)
Data Cache Power Consumption: 5.53378  (6%)
 decode_power (W): 0.866554
 wordline_power (W): 0.261855
 bitline_power (W): 2.71235
 senseamp_power (W): 0.768
 tagarray_power (W): 0.925016
Dtlb_power (W): 1.18662 (1.29%)
Level 2 Cache Power Consumption: 4.43002 (4.8%)
 decode_power (W): 0.556585
 wordline_power (W): 0.0573498
 bitline_power (W): 3.0244
 senseamp_power (W): 0.192
 tagarray_power (W): 0.599684

Processor Parameters:
Issue Width: 4
Window Size: 16
Number of Virtual Registers: 32
Number of Physical Registers: 16
Datapath Width: 64
Total Power Consumption: 94.2867
Branch Predictor Power Consumption: 5.713  (6.19%)
 branch target buffer power (W): 5.28194
 local predict power (W): 0.102961
 global predict power (W): 0.114578
 chooser power (W): 0.0844947
 RAS power (W): 0.129025
Rename Logic Power Consumption: 0.556312  (0.603%)
 Instruction Decode Power (W): 0.0212847
 RAT decode_power (W): 0.151088
 RAT wordline_power (W): 0.0409702
 RAT bitline_power (W): 0.328452
 DCL Comparators (W): 0.0145179
Instruction Window Power Consumption: 2.93395  (3.18%)
 tagdrive (W): 0.125578
 tagmatch (W): 0.044848
 Selection Logic (W): 0.0178643
 decode_power (W): 0.0708762
 wordline_power (W): 0.112422
 bitline_power (W): 2.56236
Load/Store Queue Power Consumption: 1.28199  (1.39%)
 tagdrive (W): 0.608576
 tagmatch (W): 0.13413
 decode_power (W): 0.0106424
 wordline_power (W): 0.0199808
 bitline_power (W): 0.508663
Arch. Register File Power Consumption: 4.75496  (5.15%)
 decode_power (W): 0.151088
 wordline_power (W): 0.112422
 bitline_power (W): 4.49145
Result Bus Power Consumption: 3.05803  (3.31%)
Total Clock Power: 34.7357  (37.6%)
Int ALU Power: 6.20263  (6.72%)
FP ALU Power: 19.0081  (20.6%)
Instruction Cache Power Consumption: 2.54568  (2.76%)
 decode_power (W): 1.03749
 wordline_power (W): 0.0381411
 bitline_power (W): 0.886372
 senseamp_power (W): 0.096
 tagarray_power (W): 0.487679
Itlb_power (W): 0.345938 (0.375%)
Data Cache Power Consumption: 5.53378  (6%)
 decode_power (W): 0.866554
 wordline_power (W): 0.261855
 bitline_power (W): 2.71235
 senseamp_power (W): 0.768
 tagarray_power (W): 0.925016
Dtlb_power (W): 1.18662 (1.29%)
Level 2 Cache Power Consumption: 4.43002 (4.8%)
 decode_power (W): 0.556585
 wordline_power (W): 0.0573498
 bitline_power (W): 3.0244
 senseamp_power (W): 0.192
 tagarray_power (W): 0.599684

Processor Parameters:
Issue Width: 4
Window Size: 16
Number of Virtual Registers: 32
Number of Physical Registers: 16
Datapath Width: 64
Total Power Consumption: 94.2867
Branch Predictor Power Consumption: 5.713  (6.19%)
 branch target buffer power (W): 5.28194
 local predict power (W): 0.102961
 global predict power (W): 0.114578
 chooser power (W): 0.0844947
 RAS power (W): 0.129025
Rename Logic Power Consumption: 0.556312  (0.603%)
 Instruction Decode Power (W): 0.0212847
 RAT decode_power (W): 0.151088
 RAT wordline_power (W): 0.0409702
 RAT bitline_power (W): 0.328452
 DCL Comparators (W): 0.0145179
Instruction Window Power Consumption: 2.93395  (3.18%)
 tagdrive (W): 0.125578
 tagmatch (W): 0.044848
 Selection Logic (W): 0.0178643
 decode_power (W): 0.0708762
 wordline_power (W): 0.112422
 bitline_power (W): 2.56236
Load/Store Queue Power Consumption: 1.28199  (1.39%)
 tagdrive (W): 0.608576
 tagmatch (W): 0.13413
 decode_power (W): 0.0106424
 wordline_power (W): 0.0199808
 bitline_power (W): 0.508663
Arch. Register File Power Consumption: 4.75496  (5.15%)
 decode_power (W): 0.151088
 wordline_power (W): 0.112422
 bitline_power (W): 4.49145
Result Bus Power Consumption: 3.05803  (3.31%)
Total Clock Power: 34.7357  (37.6%)
Int ALU Power: 6.20263  (6.72%)
FP ALU Power: 19.0081  (20.6%)
Instruction Cache Power Consumption: 2.54568  (2.76%)
 decode_power (W): 1.03749
 wordline_power (W): 0.0381411
 bitline_power (W): 0.886372
 senseamp_power (W): 0.096
 tagarray_power (W): 0.487679
Itlb_power (W): 0.345938 (0.375%)
Data Cache Power Consumption: 5.53378  (6%)
 decode_power (W): 0.866554
 wordline_power (W): 0.261855
 bitline_power (W): 2.71235
 senseamp_power (W): 0.768
 tagarray_power (W): 0.925016
Dtlb_power (W): 1.18662 (1.29%)
Level 2 Cache Power Consumption: 4.43002 (4.8%)
 decode_power (W): 0.556585
 wordline_power (W): 0.0573498
 bitline_power (W): 3.0244
 senseamp_power (W): 0.192
 tagarray_power (W): 0.599684

Processor Parameters:
Issue Width: 4
Window Size: 16
Number of Virtual Registers: 32
Number of Physical Registers: 16
Datapath Width: 64
Total Power Consumption: 94.2867
Branch Predictor Power Consumption: 5.713  (6.19%)
 branch target buffer power (W): 5.28194
 local predict power (W): 0.102961
 global predict power (W): 0.114578
 chooser power (W): 0.0844947
 RAS power (W): 0.129025
Rename Logic Power Consumption: 0.556312  (0.603%)
 Instruction Decode Power (W): 0.0212847
 RAT decode_power (W): 0.151088
 RAT wordline_power (W): 0.0409702
 RAT bitline_power (W): 0.328452
 DCL Comparators (W): 0.0145179
Instruction Window Power Consumption: 2.93395  (3.18%)
 tagdrive (W): 0.125578
 tagmatch (W): 0.044848
 Selection Logic (W): 0.0178643
 decode_power (W): 0.0708762
 wordline_power (W): 0.112422
 bitline_power (W): 2.56236
Load/Store Queue Power Consumption: 1.28199  (1.39%)
 tagdrive (W): 0.608576
 tagmatch (W): 0.13413
 decode_power (W): 0.0106424
 wordline_power (W): 0.0199808
 bitline_power (W): 0.508663
Arch. Register File Power Consumption: 4.75496  (5.15%)
 decode_power (W): 0.151088
 wordline_power (W): 0.112422
 bitline_power (W): 4.49145
Result Bus Power Consumption: 3.05803  (3.31%)
Total Clock Power: 34.7357  (37.6%)
Int ALU Power: 6.20263  (6.72%)
FP ALU Power: 19.0081  (20.6%)
Instruction Cache Power Consumption: 2.54568  (2.76%)
 decode_power (W): 1.03749
 wordline_power (W): 0.0381411
 bitline_power (W): 0.886372
 senseamp_power (W): 0.096
 tagarray_power (W): 0.487679
Itlb_power (W): 0.345938 (0.375%)
Data Cache Power Consumption: 5.53378  (6%)
 decode_power (W): 0.866554
 wordline_power (W): 0.261855
 bitline_power (W): 2.71235
 senseamp_power (W): 0.768
 tagarray_power (W): 0.925016
Dtlb_power (W): 1.18662 (1.29%)
Level 2 Cache Power Consumption: 4.43002 (4.8%)
 decode_power (W): 0.556585
 wordline_power (W): 0.0573498
 bitline_power (W): 3.0244
 senseamp_power (W): 0.192
 tagarray_power (W): 0.599684

Processor Parameters:
Issue Width: 4
Window Size: 16
Number of Virtual Registers: 32
Number of Physical Registers: 16
Datapath Width: 64
Total Power Consumption: 94.2867
Branch Predictor Power Consumption: 5.713  (6.19%)
 branch target buffer power (W): 5.28194
 local predict power (W): 0.102961
 global predict power (W): 0.114578
 chooser power (W): 0.0844947
 RAS power (W): 0.129025
Rename Logic Power Consumption: 0.556312  (0.603%)
 Instruction Decode Power (W): 0.0212847
 RAT decode_power (W): 0.151088
 RAT wordline_power (W): 0.0409702
 RAT bitline_power (W): 0.328452
 DCL Comparators (W): 0.0145179
Instruction Window Power Consumption: 2.93395  (3.18%)
 tagdrive (W): 0.125578
 tagmatch (W): 0.044848
 Selection Logic (W): 0.0178643
 decode_power (W): 0.0708762
 wordline_power (W): 0.112422
 bitline_power (W): 2.56236
Load/Store Queue Power Consumption: 1.28199  (1.39%)
 tagdrive (W): 0.608576
 tagmatch (W): 0.13413
 decode_power (W): 0.0106424
 wordline_power (W): 0.0199808
 bitline_power (W): 0.508663
Arch. Register File Power Consumption: 4.75496  (5.15%)
 decode_power (W): 0.151088
 wordline_power (W): 0.112422
 bitline_power (W): 4.49145
Result Bus Power Consumption: 3.05803  (3.31%)
Total Clock Power: 34.7357  (37.6%)
Int ALU Power: 6.20263  (6.72%)
FP ALU Power: 19.0081  (20.6%)
Instruction Cache Power Consumption: 2.54568  (2.76%)
 decode_power (W): 1.03749
 wordline_power (W): 0.0381411
 bitline_power (W): 0.886372
 senseamp_power (W): 0.096
 tagarray_power (W): 0.487679
Itlb_power (W): 0.345938 (0.375%)
Data Cache Power Consumption: 5.53378  (6%)
 decode_power (W): 0.866554
 wordline_power (W): 0.261855
 bitline_power (W): 2.71235
 senseamp_power (W): 0.768
 tagarray_power (W): 0.925016
Dtlb_power (W): 1.18662 (1.29%)
Level 2 Cache Power Consumption: 4.43002 (4.8%)
 decode_power (W): 0.556585
 wordline_power (W): 0.0573498
 bitline_power (W): 3.0244
 senseamp_power (W): 0.192
 tagarray_power (W): 0.599684

Processor Parameters:
Issue Width: 4
Window Size: 16
Number of Virtual Registers: 32
Number of Physical Registers: 16
Datapath Width: 64
Total Power Consumption: 94.2867
Branch Predictor Power Consumption: 5.713  (6.19%)
 branch target buffer power (W): 5.28194
 local predict power (W): 0.102961
 global predict power (W): 0.114578
 chooser power (W): 0.0844947
 RAS power (W): 0.129025
Rename Logic Power Consumption: 0.556312  (0.603%)
 Instruction Decode Power (W): 0.0212847
 RAT decode_power (W): 0.151088
 RAT wordline_power (W): 0.0409702
 RAT bitline_power (W): 0.328452
 DCL Comparators (W): 0.0145179
Instruction Window Power Consumption: 2.93395  (3.18%)
 tagdrive (W): 0.125578
 tagmatch (W): 0.044848
 Selection Logic (W): 0.0178643
 decode_power (W): 0.0708762
 wordline_power (W): 0.112422
 bitline_power (W): 2.56236
Load/Store Queue Power Consumption: 1.28199  (1.39%)
 tagdrive (W): 0.608576
 tagmatch (W): 0.13413
 decode_power (W): 0.0106424
 wordline_power (W): 0.0199808
 bitline_power (W): 0.508663
Arch. Register File Power Consumption: 4.75496  (5.15%)
 decode_power (W): 0.151088
 wordline_power (W): 0.112422
 bitline_power (W): 4.49145
Result Bus Power Consumption: 3.05803  (3.31%)
Total Clock Power: 34.7357  (37.6%)
Int ALU Power: 6.20263  (6.72%)
FP ALU Power: 19.0081  (20.6%)
Instruction Cache Power Consumption: 2.54568  (2.76%)
 decode_power (W): 1.03749
 wordline_power (W): 0.0381411
 bitline_power (W): 0.886372
 senseamp_power (W): 0.096
 tagarray_power (W): 0.487679
Itlb_power (W): 0.345938 (0.375%)
Data Cache Power Consumption: 5.53378  (6%)
 decode_power (W): 0.866554
 wordline_power (W): 0.261855
 bitline_power (W): 2.71235
 senseamp_power (W): 0.768
 tagarray_power (W): 0.925016
Dtlb_power (W): 1.18662 (1.29%)
Level 2 Cache Power Consumption: 4.43002 (4.8%)
 decode_power (W): 0.556585
 wordline_power (W): 0.0573498
 bitline_power (W): 3.0244
 senseamp_power (W): 0.192
 tagarray_power (W): 0.599684

Processor Parameters:
Issue Width: 4
Window Size: 16
Number of Virtual Registers: 32
Number of Physical Registers: 16
Datapath Width: 64
Total Power Consumption: 94.2867
Branch Predictor Power Consumption: 5.713  (6.19%)
 branch target buffer power (W): 5.28194
 local predict power (W): 0.102961
 global predict power (W): 0.114578
 chooser power (W): 0.0844947
 RAS power (W): 0.129025
Rename Logic Power Consumption: 0.556312  (0.603%)
 Instruction Decode Power (W): 0.0212847
 RAT decode_power (W): 0.151088
 RAT wordline_power (W): 0.0409702
 RAT bitline_power (W): 0.328452
 DCL Comparators (W): 0.0145179
Instruction Window Power Consumption: 2.93395  (3.18%)
 tagdrive (W): 0.125578
 tagmatch (W): 0.044848
 Selection Logic (W): 0.0178643
 decode_power (W): 0.0708762
 wordline_power (W): 0.112422
 bitline_power (W): 2.56236
Load/Store Queue Power Consumption: 1.28199  (1.39%)
 tagdrive (W): 0.608576
 tagmatch (W): 0.13413
 decode_power (W): 0.0106424
 wordline_power (W): 0.0199808
 bitline_power (W): 0.508663
Arch. Register File Power Consumption: 4.75496  (5.15%)
 decode_power (W): 0.151088
 wordline_power (W): 0.112422
 bitline_power (W): 4.49145
Result Bus Power Consumption: 3.05803  (3.31%)
Total Clock Power: 34.7357  (37.6%)
Int ALU Power: 6.20263  (6.72%)
FP ALU Power: 19.0081  (20.6%)
Instruction Cache Power Consumption: 2.54568  (2.76%)
 decode_power (W): 1.03749
 wordline_power (W): 0.0381411
 bitline_power (W): 0.886372
 senseamp_power (W): 0.096
 tagarray_power (W): 0.487679
Itlb_power (W): 0.345938 (0.375%)
Data Cache Power Consumption: 5.53378  (6%)
 decode_power (W): 0.866554
 wordline_power (W): 0.261855
 bitline_power (W): 2.71235
 senseamp_power (W): 0.768
 tagarray_power (W): 0.925016
Dtlb_power (W): 1.18662 (1.29%)
Level 2 Cache Power Consumption: 4.43002 (4.8%)
 decode_power (W): 0.556585
 wordline_power (W): 0.0573498
 bitline_power (W): 3.0244
 senseamp_power (W): 0.192
 tagarray_power (W): 0.599684

Processor Parameters:
Issue Width: 4
Window Size: 16
Number of Virtual Registers: 32
Number of Physical Registers: 16
Datapath Width: 64
Total Power Consumption: 94.2867
Branch Predictor Power Consumption: 5.713  (6.19%)
 branch target buffer power (W): 5.28194
 local predict power (W): 0.102961
 global predict power (W): 0.114578
 chooser power (W): 0.0844947
 RAS power (W): 0.129025
Rename Logic Power Consumption: 0.556312  (0.603%)
 Instruction Decode Power (W): 0.0212847
 RAT decode_power (W): 0.151088
 RAT wordline_power (W): 0.0409702
 RAT bitline_power (W): 0.328452
 DCL Comparators (W): 0.0145179
Instruction Window Power Consumption: 2.93395  (3.18%)
 tagdrive (W): 0.125578
 tagmatch (W): 0.044848
 Selection Logic (W): 0.0178643
 decode_power (W): 0.0708762
 wordline_power (W): 0.112422
 bitline_power (W): 2.56236
Load/Store Queue Power Consumption: 1.28199  (1.39%)
 tagdrive (W): 0.608576
 tagmatch (W): 0.13413
 decode_power (W): 0.0106424
 wordline_power (W): 0.0199808
 bitline_power (W): 0.508663
Arch. Register File Power Consumption: 4.75496  (5.15%)
 decode_power (W): 0.151088
 wordline_power (W): 0.112422
 bitline_power (W): 4.49145
Result Bus Power Consumption: 3.05803  (3.31%)
Total Clock Power: 34.7357  (37.6%)
Int ALU Power: 6.20263  (6.72%)
FP ALU Power: 19.0081  (20.6%)
Instruction Cache Power Consumption: 2.54568  (2.76%)
 decode_power (W): 1.03749
 wordline_power (W): 0.0381411
 bitline_power (W): 0.886372
 senseamp_power (W): 0.096
 tagarray_power (W): 0.487679
Itlb_power (W): 0.345938 (0.375%)
Data Cache Power Consumption: 5.53378  (6%)
 decode_power (W): 0.866554
 wordline_power (W): 0.261855
 bitline_power (W): 2.71235
 senseamp_power (W): 0.768
 tagarray_power (W): 0.925016
Dtlb_power (W): 1.18662 (1.29%)
Level 2 Cache Power Consumption: 4.43002 (4.8%)
 decode_power (W): 0.556585
 wordline_power (W): 0.0573498
 bitline_power (W): 3.0244
 senseamp_power (W): 0.192
 tagarray_power (W): 0.599684

Processor Parameters:
Issue Width: 4
Window Size: 16
Number of Virtual Registers: 32
Number of Physical Registers: 16
Datapath Width: 64
Total Power Consumption: 94.2867
Branch Predictor Power Consumption: 5.713  (6.19%)
 branch target buffer power (W): 5.28194
 local predict power (W): 0.102961
 global predict power (W): 0.114578
 chooser power (W): 0.0844947
 RAS power (W): 0.129025
Rename Logic Power Consumption: 0.556312  (0.603%)
 Instruction Decode Power (W): 0.0212847
 RAT decode_power (W): 0.151088
 RAT wordline_power (W): 0.0409702
 RAT bitline_power (W): 0.328452
 DCL Comparators (W): 0.0145179
Instruction Window Power Consumption: 2.93395  (3.18%)
 tagdrive (W): 0.125578
 tagmatch (W): 0.044848
 Selection Logic (W): 0.0178643
 decode_power (W): 0.0708762
 wordline_power (W): 0.112422
 bitline_power (W): 2.56236
Load/Store Queue Power Consumption: 1.28199  (1.39%)
 tagdrive (W): 0.608576
 tagmatch (W): 0.13413
 decode_power (W): 0.0106424
 wordline_power (W): 0.0199808
 bitline_power (W): 0.508663
Arch. Register File Power Consumption: 4.75496  (5.15%)
 decode_power (W): 0.151088
 wordline_power (W): 0.112422
 bitline_power (W): 4.49145
Result Bus Power Consumption: 3.05803  (3.31%)
Total Clock Power: 34.7357  (37.6%)
Int ALU Power: 6.20263  (6.72%)
FP ALU Power: 19.0081  (20.6%)
Instruction Cache Power Consumption: 2.54568  (2.76%)
 decode_power (W): 1.03749
 wordline_power (W): 0.0381411
 bitline_power (W): 0.886372
 senseamp_power (W): 0.096
 tagarray_power (W): 0.487679
Itlb_power (W): 0.345938 (0.375%)
Data Cache Power Consumption: 5.53378  (6%)
 decode_power (W): 0.866554
 wordline_power (W): 0.261855
 bitline_power (W): 2.71235
 senseamp_power (W): 0.768
 tagarray_power (W): 0.925016
Dtlb_power (W): 1.18662 (1.29%)
Level 2 Cache Power Consumption: 4.43002 (4.8%)
 decode_power (W): 0.556585
 wordline_power (W): 0.0573498
 bitline_power (W): 3.0244
 senseamp_power (W): 0.192
 tagarray_power (W): 0.599684

Processor Parameters:
Issue Width: 4
Window Size: 16
Number of Virtual Registers: 32
Number of Physical Registers: 16
Datapath Width: 64
Total Power Consumption: 94.2867
Branch Predictor Power Consumption: 5.713  (6.19%)
 branch target buffer power (W): 5.28194
 local predict power (W): 0.102961
 global predict power (W): 0.114578
 chooser power (W): 0.0844947
 RAS power (W): 0.129025
Rename Logic Power Consumption: 0.556312  (0.603%)
 Instruction Decode Power (W): 0.0212847
 RAT decode_power (W): 0.151088
 RAT wordline_power (W): 0.0409702
 RAT bitline_power (W): 0.328452
 DCL Comparators (W): 0.0145179
Instruction Window Power Consumption: 2.93395  (3.18%)
 tagdrive (W): 0.125578
 tagmatch (W): 0.044848
 Selection Logic (W): 0.0178643
 decode_power (W): 0.0708762
 wordline_power (W): 0.112422
 bitline_power (W): 2.56236
Load/Store Queue Power Consumption: 1.28199  (1.39%)
 tagdrive (W): 0.608576
 tagmatch (W): 0.13413
 decode_power (W): 0.0106424
 wordline_power (W): 0.0199808
 bitline_power (W): 0.508663
Arch. Register File Power Consumption: 4.75496  (5.15%)
 decode_power (W): 0.151088
 wordline_power (W): 0.112422
 bitline_power (W): 4.49145
Result Bus Power Consumption: 3.05803  (3.31%)
Total Clock Power: 34.7357  (37.6%)
Int ALU Power: 6.20263  (6.72%)
FP ALU Power: 19.0081  (20.6%)
Instruction Cache Power Consumption: 2.54568  (2.76%)
 decode_power (W): 1.03749
 wordline_power (W): 0.0381411
 bitline_power (W): 0.886372
 senseamp_power (W): 0.096
 tagarray_power (W): 0.487679
Itlb_power (W): 0.345938 (0.375%)
Data Cache Power Consumption: 5.53378  (6%)
 decode_power (W): 0.866554
 wordline_power (W): 0.261855
 bitline_power (W): 2.71235
 senseamp_power (W): 0.768
 tagarray_power (W): 0.925016
Dtlb_power (W): 1.18662 (1.29%)
Level 2 Cache Power Consumption: 4.43002 (4.8%)
 decode_power (W): 0.556585
 wordline_power (W): 0.0573498
 bitline_power (W): 3.0244
 senseamp_power (W): 0.192
 tagarray_power (W): 0.599684

Processor Parameters:
Issue Width: 4
Window Size: 16
Number of Virtual Registers: 32
Number of Physical Registers: 16
Datapath Width: 64
Total Power Consumption: 94.2867
Branch Predictor Power Consumption: 5.713  (6.19%)
 branch target buffer power (W): 5.28194
 local predict power (W): 0.102961
 global predict power (W): 0.114578
 chooser power (W): 0.0844947
 RAS power (W): 0.129025
Rename Logic Power Consumption: 0.556312  (0.603%)
 Instruction Decode Power (W): 0.0212847
 RAT decode_power (W): 0.151088
 RAT wordline_power (W): 0.0409702
 RAT bitline_power (W): 0.328452
 DCL Comparators (W): 0.0145179
Instruction Window Power Consumption: 2.93395  (3.18%)
 tagdrive (W): 0.125578
 tagmatch (W): 0.044848
 Selection Logic (W): 0.0178643
 decode_power (W): 0.0708762
 wordline_power (W): 0.112422
 bitline_power (W): 2.56236
Load/Store Queue Power Consumption: 1.28199  (1.39%)
 tagdrive (W): 0.608576
 tagmatch (W): 0.13413
 decode_power (W): 0.0106424
 wordline_power (W): 0.0199808
 bitline_power (W): 0.508663
Arch. Register File Power Consumption: 4.75496  (5.15%)
 decode_power (W): 0.151088
 wordline_power (W): 0.112422
 bitline_power (W): 4.49145
Result Bus Power Consumption: 3.05803  (3.31%)
Total Clock Power: 34.7357  (37.6%)
Int ALU Power: 6.20263  (6.72%)
FP ALU Power: 19.0081  (20.6%)
Instruction Cache Power Consumption: 2.54568  (2.76%)
 decode_power (W): 1.03749
 wordline_power (W): 0.0381411
 bitline_power (W): 0.886372
 senseamp_power (W): 0.096
 tagarray_power (W): 0.487679
Itlb_power (W): 0.345938 (0.375%)
Data Cache Power Consumption: 5.53378  (6%)
 decode_power (W): 0.866554
 wordline_power (W): 0.261855
 bitline_power (W): 2.71235
 senseamp_power (W): 0.768
 tagarray_power (W): 0.925016
Dtlb_power (W): 1.18662 (1.29%)
Level 2 Cache Power Consumption: 4.43002 (4.8%)
 decode_power (W): 0.556585
 wordline_power (W): 0.0573498
 bitline_power (W): 3.0244
 senseamp_power (W): 0.192
 tagarray_power (W): 0.599684

Processor Parameters:
Issue Width: 4
Window Size: 16
Number of Virtual Registers: 32
Number of Physical Registers: 16
Datapath Width: 64
Total Power Consumption: 94.2867
Branch Predictor Power Consumption: 5.713  (6.19%)
 branch target buffer power (W): 5.28194
 local predict power (W): 0.102961
 global predict power (W): 0.114578
 chooser power (W): 0.0844947
 RAS power (W): 0.129025
Rename Logic Power Consumption: 0.556312  (0.603%)
 Instruction Decode Power (W): 0.0212847
 RAT decode_power (W): 0.151088
 RAT wordline_power (W): 0.0409702
 RAT bitline_power (W): 0.328452
 DCL Comparators (W): 0.0145179
Instruction Window Power Consumption: 2.93395  (3.18%)
 tagdrive (W): 0.125578
 tagmatch (W): 0.044848
 Selection Logic (W): 0.0178643
 decode_power (W): 0.0708762
 wordline_power (W): 0.112422
 bitline_power (W): 2.56236
Load/Store Queue Power Consumption: 1.28199  (1.39%)
 tagdrive (W): 0.608576
 tagmatch (W): 0.13413
 decode_power (W): 0.0106424
 wordline_power (W): 0.0199808
 bitline_power (W): 0.508663
Arch. Register File Power Consumption: 4.75496  (5.15%)
 decode_power (W): 0.151088
 wordline_power (W): 0.112422
 bitline_power (W): 4.49145
Result Bus Power Consumption: 3.05803  (3.31%)
Total Clock Power: 34.7357  (37.6%)
Int ALU Power: 6.20263  (6.72%)
FP ALU Power: 19.0081  (20.6%)
Instruction Cache Power Consumption: 2.54568  (2.76%)
 decode_power (W): 1.03749
 wordline_power (W): 0.0381411
 bitline_power (W): 0.886372
 senseamp_power (W): 0.096
 tagarray_power (W): 0.487679
Itlb_power (W): 0.345938 (0.375%)
Data Cache Power Consumption: 5.53378  (6%)
 decode_power (W): 0.866554
 wordline_power (W): 0.261855
 bitline_power (W): 2.71235
 senseamp_power (W): 0.768
 tagarray_power (W): 0.925016
Dtlb_power (W): 1.18662 (1.29%)
Level 2 Cache Power Consumption: 4.43002 (4.8%)
 decode_power (W): 0.556585
 wordline_power (W): 0.0573498
 bitline_power (W): 3.0244
 senseamp_power (W): 0.192
 tagarray_power (W): 0.599684

Processor Parameters:
Issue Width: 4
Window Size: 16
Number of Virtual Registers: 32
Number of Physical Registers: 16
Datapath Width: 64
Total Power Consumption: 94.2867
Branch Predictor Power Consumption: 5.713  (6.19%)
 branch target buffer power (W): 5.28194
 local predict power (W): 0.102961
 global predict power (W): 0.114578
 chooser power (W): 0.0844947
 RAS power (W): 0.129025
Rename Logic Power Consumption: 0.556312  (0.603%)
 Instruction Decode Power (W): 0.0212847
 RAT decode_power (W): 0.151088
 RAT wordline_power (W): 0.0409702
 RAT bitline_power (W): 0.328452
 DCL Comparators (W): 0.0145179
Instruction Window Power Consumption: 2.93395  (3.18%)
 tagdrive (W): 0.125578
 tagmatch (W): 0.044848
 Selection Logic (W): 0.0178643
 decode_power (W): 0.0708762
 wordline_power (W): 0.112422
 bitline_power (W): 2.56236
Load/Store Queue Power Consumption: 1.28199  (1.39%)
 tagdrive (W): 0.608576
 tagmatch (W): 0.13413
 decode_power (W): 0.0106424
 wordline_power (W): 0.0199808
 bitline_power (W): 0.508663
Arch. Register File Power Consumption: 4.75496  (5.15%)
 decode_power (W): 0.151088
 wordline_power (W): 0.112422
 bitline_power (W): 4.49145
Result Bus Power Consumption: 3.05803  (3.31%)
Total Clock Power: 34.7357  (37.6%)
Int ALU Power: 6.20263  (6.72%)
FP ALU Power: 19.0081  (20.6%)
Instruction Cache Power Consumption: 2.54568  (2.76%)
 decode_power (W): 1.03749
 wordline_power (W): 0.0381411
 bitline_power (W): 0.886372
 senseamp_power (W): 0.096
 tagarray_power (W): 0.487679
Itlb_power (W): 0.345938 (0.375%)
Data Cache Power Consumption: 5.53378  (6%)
 decode_power (W): 0.866554
 wordline_power (W): 0.261855
 bitline_power (W): 2.71235
 senseamp_power (W): 0.768
 tagarray_power (W): 0.925016
Dtlb_power (W): 1.18662 (1.29%)
Level 2 Cache Power Consumption: 4.43002 (4.8%)
 decode_power (W): 0.556585
 wordline_power (W): 0.0573498
 bitline_power (W): 3.0244
 senseamp_power (W): 0.192
 tagarray_power (W): 0.599684

Processor Parameters:
Issue Width: 4
Window Size: 16
Number of Virtual Registers: 32
Number of Physical Registers: 16
Datapath Width: 64
Total Power Consumption: 94.2867
Branch Predictor Power Consumption: 5.713  (6.19%)
 branch target buffer power (W): 5.28194
 local predict power (W): 0.102961
 global predict power (W): 0.114578
 chooser power (W): 0.0844947
 RAS power (W): 0.129025
Rename Logic Power Consumption: 0.556312  (0.603%)
 Instruction Decode Power (W): 0.0212847
 RAT decode_power (W): 0.151088
 RAT wordline_power (W): 0.0409702
 RAT bitline_power (W): 0.328452
 DCL Comparators (W): 0.0145179
Instruction Window Power Consumption: 2.93395  (3.18%)
 tagdrive (W): 0.125578
 tagmatch (W): 0.044848
 Selection Logic (W): 0.0178643
 decode_power (W): 0.0708762
 wordline_power (W): 0.112422
 bitline_power (W): 2.56236
Load/Store Queue Power Consumption: 1.28199  (1.39%)
 tagdrive (W): 0.608576
 tagmatch (W): 0.13413
 decode_power (W): 0.0106424
 wordline_power (W): 0.0199808
 bitline_power (W): 0.508663
Arch. Register File Power Consumption: 4.75496  (5.15%)
 decode_power (W): 0.151088
 wordline_power (W): 0.112422
 bitline_power (W): 4.49145
Result Bus Power Consumption: 3.05803  (3.31%)
Total Clock Power: 34.7357  (37.6%)
Int ALU Power: 6.20263  (6.72%)
FP ALU Power: 19.0081  (20.6%)
Instruction Cache Power Consumption: 2.54568  (2.76%)
 decode_power (W): 1.03749
 wordline_power (W): 0.0381411
 bitline_power (W): 0.886372
 senseamp_power (W): 0.096
 tagarray_power (W): 0.487679
Itlb_power (W): 0.345938 (0.375%)
Data Cache Power Consumption: 5.53378  (6%)
 decode_power (W): 0.866554
 wordline_power (W): 0.261855
 bitline_power (W): 2.71235
 senseamp_power (W): 0.768
 tagarray_power (W): 0.925016
Dtlb_power (W): 1.18662 (1.29%)
Level 2 Cache Power Consumption: 4.43002 (4.8%)
 decode_power (W): 0.556585
 wordline_power (W): 0.0573498
 bitline_power (W): 3.0244
 senseamp_power (W): 0.192
 tagarray_power (W): 0.599684

Processor Parameters:
Issue Width: 4
Window Size: 16
Number of Virtual Registers: 32
Number of Physical Registers: 16
Datapath Width: 64
Total Power Consumption: 94.2867
Branch Predictor Power Consumption: 5.713  (6.19%)
 branch target buffer power (W): 5.28194
 local predict power (W): 0.102961
 global predict power (W): 0.114578
 chooser power (W): 0.0844947
 RAS power (W): 0.129025
Rename Logic Power Consumption: 0.556312  (0.603%)
 Instruction Decode Power (W): 0.0212847
 RAT decode_power (W): 0.151088
 RAT wordline_power (W): 0.0409702
 RAT bitline_power (W): 0.328452
 DCL Comparators (W): 0.0145179
Instruction Window Power Consumption: 2.93395  (3.18%)
 tagdrive (W): 0.125578
 tagmatch (W): 0.044848
 Selection Logic (W): 0.0178643
 decode_power (W): 0.0708762
 wordline_power (W): 0.112422
 bitline_power (W): 2.56236
Load/Store Queue Power Consumption: 1.28199  (1.39%)
 tagdrive (W): 0.608576
 tagmatch (W): 0.13413
 decode_power (W): 0.0106424
 wordline_power (W): 0.0199808
 bitline_power (W): 0.508663
Arch. Register File Power Consumption: 4.75496  (5.15%)
 decode_power (W): 0.151088
 wordline_power (W): 0.112422
 bitline_power (W): 4.49145
Result Bus Power Consumption: 3.05803  (3.31%)
Total Clock Power: 34.7357  (37.6%)
Int ALU Power: 6.20263  (6.72%)
FP ALU Power: 19.0081  (20.6%)
Instruction Cache Power Consumption: 2.54568  (2.76%)
 decode_power (W): 1.03749
 wordline_power (W): 0.0381411
 bitline_power (W): 0.886372
 senseamp_power (W): 0.096
 tagarray_power (W): 0.487679
Itlb_power (W): 0.345938 (0.375%)
Data Cache Power Consumption: 5.53378  (6%)
 decode_power (W): 0.866554
 wordline_power (W): 0.261855
 bitline_power (W): 2.71235
 senseamp_power (W): 0.768
 tagarray_power (W): 0.925016
Dtlb_power (W): 1.18662 (1.29%)
Level 2 Cache Power Consumption: 4.43002 (4.8%)
 decode_power (W): 0.556585
 wordline_power (W): 0.0573498
 bitline_power (W): 3.0244
 senseamp_power (W): 0.192
 tagarray_power (W): 0.599684

Processor Parameters:
Issue Width: 4
Window Size: 16
Number of Virtual Registers: 32
Number of Physical Registers: 16
Datapath Width: 64
Total Power Consumption: 94.2867
Branch Predictor Power Consumption: 5.713  (6.19%)
 branch target buffer power (W): 5.28194
 local predict power (W): 0.102961
 global predict power (W): 0.114578
 chooser power (W): 0.0844947
 RAS power (W): 0.129025
Rename Logic Power Consumption: 0.556312  (0.603%)
 Instruction Decode Power (W): 0.0212847
 RAT decode_power (W): 0.151088
 RAT wordline_power (W): 0.0409702
 RAT bitline_power (W): 0.328452
 DCL Comparators (W): 0.0145179
Instruction Window Power Consumption: 2.93395  (3.18%)
 tagdrive (W): 0.125578
 tagmatch (W): 0.044848
 Selection Logic (W): 0.0178643
 decode_power (W): 0.0708762
 wordline_power (W): 0.112422
 bitline_power (W): 2.56236
Load/Store Queue Power Consumption: 1.28199  (1.39%)
 tagdrive (W): 0.608576
 tagmatch (W): 0.13413
 decode_power (W): 0.0106424
 wordline_power (W): 0.0199808
 bitline_power (W): 0.508663
Arch. Register File Power Consumption: 4.75496  (5.15%)
 decode_power (W): 0.151088
 wordline_power (W): 0.112422
 bitline_power (W): 4.49145
Result Bus Power Consumption: 3.05803  (3.31%)
Total Clock Power: 34.7357  (37.6%)
Int ALU Power: 6.20263  (6.72%)
FP ALU Power: 19.0081  (20.6%)
Instruction Cache Power Consumption: 2.54568  (2.76%)
 decode_power (W): 1.03749
 wordline_power (W): 0.0381411
 bitline_power (W): 0.886372
 senseamp_power (W): 0.096
 tagarray_power (W): 0.487679
Itlb_power (W): 0.345938 (0.375%)
Data Cache Power Consumption: 5.53378  (6%)
 decode_power (W): 0.866554
 wordline_power (W): 0.261855
 bitline_power (W): 2.71235
 senseamp_power (W): 0.768
 tagarray_power (W): 0.925016
Dtlb_power (W): 1.18662 (1.29%)
Level 2 Cache Power Consumption: 4.43002 (4.8%)
 decode_power (W): 0.556585
 wordline_power (W): 0.0573498
 bitline_power (W): 3.0244
 senseamp_power (W): 0.192
 tagarray_power (W): 0.599684

Processor Parameters:
Issue Width: 4
Window Size: 16
Number of Virtual Registers: 32
Number of Physical Registers: 16
Datapath Width: 64
Total Power Consumption: 94.2867
Branch Predictor Power Consumption: 5.713  (6.19%)
 branch target buffer power (W): 5.28194
 local predict power (W): 0.102961
 global predict power (W): 0.114578
 chooser power (W): 0.0844947
 RAS power (W): 0.129025
Rename Logic Power Consumption: 0.556312  (0.603%)
 Instruction Decode Power (W): 0.0212847
 RAT decode_power (W): 0.151088
 RAT wordline_power (W): 0.0409702
 RAT bitline_power (W): 0.328452
 DCL Comparators (W): 0.0145179
Instruction Window Power Consumption: 2.93395  (3.18%)
 tagdrive (W): 0.125578
 tagmatch (W): 0.044848
 Selection Logic (W): 0.0178643
 decode_power (W): 0.0708762
 wordline_power (W): 0.112422
 bitline_power (W): 2.56236
Load/Store Queue Power Consumption: 1.28199  (1.39%)
 tagdrive (W): 0.608576
 tagmatch (W): 0.13413
 decode_power (W): 0.0106424
 wordline_power (W): 0.0199808
 bitline_power (W): 0.508663
Arch. Register File Power Consumption: 4.75496  (5.15%)
 decode_power (W): 0.151088
 wordline_power (W): 0.112422
 bitline_power (W): 4.49145
Result Bus Power Consumption: 3.05803  (3.31%)
Total Clock Power: 34.7357  (37.6%)
Int ALU Power: 6.20263  (6.72%)
FP ALU Power: 19.0081  (20.6%)
Instruction Cache Power Consumption: 2.54568  (2.76%)
 decode_power (W): 1.03749
 wordline_power (W): 0.0381411
 bitline_power (W): 0.886372
 senseamp_power (W): 0.096
 tagarray_power (W): 0.487679
Itlb_power (W): 0.345938 (0.375%)
Data Cache Power Consumption: 5.53378  (6%)
 decode_power (W): 0.866554
 wordline_power (W): 0.261855
 bitline_power (W): 2.71235
 senseamp_power (W): 0.768
 tagarray_power (W): 0.925016
Dtlb_power (W): 1.18662 (1.29%)
Level 2 Cache Power Consumption: 4.43002 (4.8%)
 decode_power (W): 0.556585
 wordline_power (W): 0.0573498
 bitline_power (W): 3.0244
 senseamp_power (W): 0.192
 tagarray_power (W): 0.599684

Processor Parameters:
Issue Width: 4
Window Size: 16
Number of Virtual Registers: 32
Number of Physical Registers: 16
Datapath Width: 64
Total Power Consumption: 94.2867
Branch Predictor Power Consumption: 5.713  (6.19%)
 branch target buffer power (W): 5.28194
 local predict power (W): 0.102961
 global predict power (W): 0.114578
 chooser power (W): 0.0844947
 RAS power (W): 0.129025
Rename Logic Power Consumption: 0.556312  (0.603%)
 Instruction Decode Power (W): 0.0212847
 RAT decode_power (W): 0.151088
 RAT wordline_power (W): 0.0409702
 RAT bitline_power (W): 0.328452
 DCL Comparators (W): 0.0145179
Instruction Window Power Consumption: 2.93395  (3.18%)
 tagdrive (W): 0.125578
 tagmatch (W): 0.044848
 Selection Logic (W): 0.0178643
 decode_power (W): 0.0708762
 wordline_power (W): 0.112422
 bitline_power (W): 2.56236
Load/Store Queue Power Consumption: 1.28199  (1.39%)
 tagdrive (W): 0.608576
 tagmatch (W): 0.13413
 decode_power (W): 0.0106424
 wordline_power (W): 0.0199808
 bitline_power (W): 0.508663
Arch. Register File Power Consumption: 4.75496  (5.15%)
 decode_power (W): 0.151088
 wordline_power (W): 0.112422
 bitline_power (W): 4.49145
Result Bus Power Consumption: 3.05803  (3.31%)
Total Clock Power: 34.7357  (37.6%)
Int ALU Power: 6.20263  (6.72%)
FP ALU Power: 19.0081  (20.6%)
Instruction Cache Power Consumption: 2.54568  (2.76%)
 decode_power (W): 1.03749
 wordline_power (W): 0.0381411
 bitline_power (W): 0.886372
 senseamp_power (W): 0.096
 tagarray_power (W): 0.487679
Itlb_power (W): 0.345938 (0.375%)
Data Cache Power Consumption: 5.53378  (6%)
 decode_power (W): 0.866554
 wordline_power (W): 0.261855
 bitline_power (W): 2.71235
 senseamp_power (W): 0.768
 tagarray_power (W): 0.925016
Dtlb_power (W): 1.18662 (1.29%)
Level 2 Cache Power Consumption: 4.43002 (4.8%)
 decode_power (W): 0.556585
 wordline_power (W): 0.0573498
 bitline_power (W): 3.0244
 senseamp_power (W): 0.192
 tagarray_power (W): 0.599684

Processor Parameters:
Issue Width: 4
Window Size: 16
Number of Virtual Registers: 32
Number of Physical Registers: 16
Datapath Width: 64
Total Power Consumption: 94.2867
Branch Predictor Power Consumption: 5.713  (6.19%)
 branch target buffer power (W): 5.28194
 local predict power (W): 0.102961
 global predict power (W): 0.114578
 chooser power (W): 0.0844947
 RAS power (W): 0.129025
Rename Logic Power Consumption: 0.556312  (0.603%)
 Instruction Decode Power (W): 0.0212847
 RAT decode_power (W): 0.151088
 RAT wordline_power (W): 0.0409702
 RAT bitline_power (W): 0.328452
 DCL Comparators (W): 0.0145179
Instruction Window Power Consumption: 2.93395  (3.18%)
 tagdrive (W): 0.125578
 tagmatch (W): 0.044848
 Selection Logic (W): 0.0178643
 decode_power (W): 0.0708762
 wordline_power (W): 0.112422
 bitline_power (W): 2.56236
Load/Store Queue Power Consumption: 1.28199  (1.39%)
 tagdrive (W): 0.608576
 tagmatch (W): 0.13413
 decode_power (W): 0.0106424
 wordline_power (W): 0.0199808
 bitline_power (W): 0.508663
Arch. Register File Power Consumption: 4.75496  (5.15%)
 decode_power (W): 0.151088
 wordline_power (W): 0.112422
 bitline_power (W): 4.49145
Result Bus Power Consumption: 3.05803  (3.31%)
Total Clock Power: 34.7357  (37.6%)
Int ALU Power: 6.20263  (6.72%)
FP ALU Power: 19.0081  (20.6%)
Instruction Cache Power Consumption: 2.54568  (2.76%)
 decode_power (W): 1.03749
 wordline_power (W): 0.0381411
 bitline_power (W): 0.886372
 senseamp_power (W): 0.096
 tagarray_power (W): 0.487679
Itlb_power (W): 0.345938 (0.375%)
Data Cache Power Consumption: 5.53378  (6%)
 decode_power (W): 0.866554
 wordline_power (W): 0.261855
 bitline_power (W): 2.71235
 senseamp_power (W): 0.768
 tagarray_power (W): 0.925016
Dtlb_power (W): 1.18662 (1.29%)
Level 2 Cache Power Consumption: 4.43002 (4.8%)
 decode_power (W): 0.556585
 wordline_power (W): 0.0573498
 bitline_power (W): 3.0244
 senseamp_power (W): 0.192
 tagarray_power (W): 0.599684

Processor Parameters:
Issue Width: 4
Window Size: 16
Number of Virtual Registers: 32
Number of Physical Registers: 16
Datapath Width: 64
Total Power Consumption: 94.2867
Branch Predictor Power Consumption: 5.713  (6.19%)
 branch target buffer power (W): 5.28194
 local predict power (W): 0.102961
 global predict power (W): 0.114578
 chooser power (W): 0.0844947
 RAS power (W): 0.129025
Rename Logic Power Consumption: 0.556312  (0.603%)
 Instruction Decode Power (W): 0.0212847
 RAT decode_power (W): 0.151088
 RAT wordline_power (W): 0.0409702
 RAT bitline_power (W): 0.328452
 DCL Comparators (W): 0.0145179
Instruction Window Power Consumption: 2.93395  (3.18%)
 tagdrive (W): 0.125578
 tagmatch (W): 0.044848
 Selection Logic (W): 0.0178643
 decode_power (W): 0.0708762
 wordline_power (W): 0.112422
 bitline_power (W): 2.56236
Load/Store Queue Power Consumption: 1.28199  (1.39%)
 tagdrive (W): 0.608576
 tagmatch (W): 0.13413
 decode_power (W): 0.0106424
 wordline_power (W): 0.0199808
 bitline_power (W): 0.508663
Arch. Register File Power Consumption: 4.75496  (5.15%)
 decode_power (W): 0.151088
 wordline_power (W): 0.112422
 bitline_power (W): 4.49145
Result Bus Power Consumption: 3.05803  (3.31%)
Total Clock Power: 34.7357  (37.6%)
Int ALU Power: 6.20263  (6.72%)
FP ALU Power: 19.0081  (20.6%)
Instruction Cache Power Consumption: 2.54568  (2.76%)
 decode_power (W): 1.03749
 wordline_power (W): 0.0381411
 bitline_power (W): 0.886372
 senseamp_power (W): 0.096
 tagarray_power (W): 0.487679
Itlb_power (W): 0.345938 (0.375%)
Data Cache Power Consumption: 5.53378  (6%)
 decode_power (W): 0.866554
 wordline_power (W): 0.261855
 bitline_power (W): 2.71235
 senseamp_power (W): 0.768
 tagarray_power (W): 0.925016
Dtlb_power (W): 1.18662 (1.29%)
Level 2 Cache Power Consumption: 4.43002 (4.8%)
 decode_power (W): 0.556585
 wordline_power (W): 0.0573498
 bitline_power (W): 3.0244
 senseamp_power (W): 0.192
 tagarray_power (W): 0.599684

Processor Parameters:
Issue Width: 4
Window Size: 16
Number of Virtual Registers: 32
Number of Physical Registers: 16
Datapath Width: 64
Total Power Consumption: 94.2867
Branch Predictor Power Consumption: 5.713  (6.19%)
 branch target buffer power (W): 5.28194
 local predict power (W): 0.102961
 global predict power (W): 0.114578
 chooser power (W): 0.0844947
 RAS power (W): 0.129025
Rename Logic Power Consumption: 0.556312  (0.603%)
 Instruction Decode Power (W): 0.0212847
 RAT decode_power (W): 0.151088
 RAT wordline_power (W): 0.0409702
 RAT bitline_power (W): 0.328452
 DCL Comparators (W): 0.0145179
Instruction Window Power Consumption: 2.93395  (3.18%)
 tagdrive (W): 0.125578
 tagmatch (W): 0.044848
 Selection Logic (W): 0.0178643
 decode_power (W): 0.0708762
 wordline_power (W): 0.112422
 bitline_power (W): 2.56236
Load/Store Queue Power Consumption: 1.28199  (1.39%)
 tagdrive (W): 0.608576
 tagmatch (W): 0.13413
 decode_power (W): 0.0106424
 wordline_power (W): 0.0199808
 bitline_power (W): 0.508663
Arch. Register File Power Consumption: 4.75496  (5.15%)
 decode_power (W): 0.151088
 wordline_power (W): 0.112422
 bitline_power (W): 4.49145
Result Bus Power Consumption: 3.05803  (3.31%)
Total Clock Power: 34.7357  (37.6%)
Int ALU Power: 6.20263  (6.72%)
FP ALU Power: 19.0081  (20.6%)
Instruction Cache Power Consumption: 2.54568  (2.76%)
 decode_power (W): 1.03749
 wordline_power (W): 0.0381411
 bitline_power (W): 0.886372
 senseamp_power (W): 0.096
 tagarray_power (W): 0.487679
Itlb_power (W): 0.345938 (0.375%)
Data Cache Power Consumption: 5.53378  (6%)
 decode_power (W): 0.866554
 wordline_power (W): 0.261855
 bitline_power (W): 2.71235
 senseamp_power (W): 0.768
 tagarray_power (W): 0.925016
Dtlb_power (W): 1.18662 (1.29%)
Level 2 Cache Power Consumption: 4.43002 (4.8%)
 decode_power (W): 0.556585
 wordline_power (W): 0.0573498
 bitline_power (W): 3.0244
 senseamp_power (W): 0.192
 tagarray_power (W): 0.599684

Processor Parameters:
Issue Width: 4
Window Size: 16
Number of Virtual Registers: 32
Number of Physical Registers: 16
Datapath Width: 64
Total Power Consumption: 73.7882
Branch Predictor Power Consumption: 4.52313  (6.3%)
 branch target buffer power (W): 4.16837
 local predict power (W): 0.0879711
 global predict power (W): 0.0996078
 chooser power (W): 0.0702439
 RAS power (W): 0.0969383
Rename Logic Power Consumption: 0.417965  (0.582%)
 Instruction Decode Power (W): 0.0159915
 RAT decode_power (W): 0.113514
 RAT wordline_power (W): 0.0307815
 RAT bitline_power (W): 0.246771
 DCL Comparators (W): 0.0109075
Instruction Window Power Consumption: 2.20432  (3.07%)
 tagdrive (W): 0.0943488
 tagmatch (W): 0.033695
 Selection Logic (W): 0.0134217
 decode_power (W): 0.0532503
 wordline_power (W): 0.0844643
 bitline_power (W): 1.92514
Load/Store Queue Power Consumption: 0.96318  (1.34%)
 tagdrive (W): 0.457232
 tagmatch (W): 0.100774
 decode_power (W): 0.00799577
 wordline_power (W): 0.0150119
 bitline_power (W): 0.382166
Arch. Register File Power Consumption: 3.57247  (4.98%)
 decode_power (W): 0.113514
 wordline_power (W): 0.0844643
 bitline_power (W): 3.37449
Result Bus Power Consumption: 2.29754  (3.2%)
Total Clock Power: 26.0975  (36.4%)
Int ALU Power: 4.66013  (6.49%)
FP ALU Power: 14.281  (19.9%)
Instruction Cache Power Consumption: 2.21363  (3.08%)
 decode_power (W): 0.779481
 wordline_power (W): 0.028656
 bitline_power (W): 0.886372
 senseamp_power (W): 0.096
 tagarray_power (W): 0.423116
Itlb_power (W): 0.263317 (0.367%)
Data Cache Power Consumption: 5.18303  (7.22%)
 decode_power (W): 0.651055
 wordline_power (W): 0.196735
 bitline_power (W): 2.71235
 senseamp_power (W): 0.768
 tagarray_power (W): 0.854886
Dtlb_power (W): 0.901877 (1.26%)
Level 2 Cache Power Consumption: 4.2091 (5.86%)
 decode_power (W): 0.41817
 wordline_power (W): 0.0430878
 bitline_power (W): 3.0244
 senseamp_power (W): 0.192
 tagarray_power (W): 0.531433

Processor Parameters:
Issue Width: 4
Window Size: 16
Number of Virtual Registers: 32
Number of Physical Registers: 16
Datapath Width: 64
Total Power Consumption: 73.7882
Branch Predictor Power Consumption: 4.52313  (6.3%)
 branch target buffer power (W): 4.16837
 local predict power (W): 0.0879711
 global predict power (W): 0.0996078
 chooser power (W): 0.0702439
 RAS power (W): 0.0969383
Rename Logic Power Consumption: 0.417965  (0.582%)
 Instruction Decode Power (W): 0.0159915
 RAT decode_power (W): 0.113514
 RAT wordline_power (W): 0.0307815
 RAT bitline_power (W): 0.246771
 DCL Comparators (W): 0.0109075
Instruction Window Power Consumption: 2.20432  (3.07%)
 tagdrive (W): 0.0943488
 tagmatch (W): 0.033695
 Selection Logic (W): 0.0134217
 decode_power (W): 0.0532503
 wordline_power (W): 0.0844643
 bitline_power (W): 1.92514
Load/Store Queue Power Consumption: 0.96318  (1.34%)
 tagdrive (W): 0.457232
 tagmatch (W): 0.100774
 decode_power (W): 0.00799577
 wordline_power (W): 0.0150119
 bitline_power (W): 0.382166
Arch. Register File Power Consumption: 3.57247  (4.98%)
 decode_power (W): 0.113514
 wordline_power (W): 0.0844643
 bitline_power (W): 3.37449
Result Bus Power Consumption: 2.29754  (3.2%)
Total Clock Power: 26.0975  (36.4%)
Int ALU Power: 4.66013  (6.49%)
FP ALU Power: 14.281  (19.9%)
Instruction Cache Power Consumption: 2.21363  (3.08%)
 decode_power (W): 0.779481
 wordline_power (W): 0.028656
 bitline_power (W): 0.886372
 senseamp_power (W): 0.096
 tagarray_power (W): 0.423116
Itlb_power (W): 0.263317 (0.367%)
Data Cache Power Consumption: 5.18303  (7.22%)
 decode_power (W): 0.651055
 wordline_power (W): 0.196735
 bitline_power (W): 2.71235
 senseamp_power (W): 0.768
 tagarray_power (W): 0.854886
Dtlb_power (W): 0.901877 (1.26%)
Level 2 Cache Power Consumption: 4.2091 (5.86%)
 decode_power (W): 0.41817
 wordline_power (W): 0.0430878
 bitline_power (W): 3.0244
 senseamp_power (W): 0.192
 tagarray_power (W): 0.531433

Processor Parameters:
Issue Width: 4
Window Size: 16
Number of Virtual Registers: 32
Number of Physical Registers: 16
Datapath Width: 64
Total Power Consumption: 73.7882
Branch Predictor Power Consumption: 4.52313  (6.3%)
 branch target buffer power (W): 4.16837
[...]
sim_inst_rate            88748.0000 # simulation speed (in insts/sec)
sim_total_insn                89820 # total number of instructions executed
sim_total_refs                71673 # total number of loads and stores executed
sim_total_loads                1713 # total number of loads executed
sim_total_stores         69960.0000 # total number of stores executed
sim_total_branches             5398 # total number of branches executed
sim_cycle                     48959 # total simulation time in cycles
sim_IPC                      1.8127 # instructions per cycle
sim_CPI                      0.5517 # cycles per instruction
sim_exec_BW                  1.8346 # total instructions (mis-spec + committed) per cycle
sim_IPB                     16.7039 # instruction per branch
IFQ_count                    171042 # cumulative IFQ occupancy
IFQ_fcount                    42423 # cumulative IFQ full count
ifq_occupancy                3.4936 # avg IFQ occupancy (insn's)
ifq_rate                     1.8346 # avg IFQ dispatch rate (insn/cycle)
ifq_latency                  1.9043 # avg IFQ occupant latency (cycle's)
ifq_full                     0.8665 # fraction of time (cycle's) IFQ was full
RUU_count                    419616 # cumulative RUU occupancy
RUU_fcount                     1980 # cumulative RUU full count
ruu_occupancy                8.5708 # avg RUU occupancy (insn's)
ruu_rate                     1.8346 # avg RUU dispatch rate (insn/cycle)
ruu_latency                  4.6717 # avg RUU occupant latency (cycle's)
ruu_full                     0.0404 # fraction of time (cycle's) RUU was full
LSQ_count                    329092 # cumulative LSQ occupancy
LSQ_fcount                    35410 # cumulative LSQ full count
lsq_occupancy                6.7218 # avg LSQ occupancy (insn's)
lsq_rate                     1.8346 # avg LSQ dispatch rate (insn/cycle)
lsq_latency                  3.6639 # avg LSQ occupant latency (cycle's)
lsq_full                     0.7233 # fraction of time (cycle's) LSQ was full
sim_slip                     900614 # total number of slip cycles
avg_sim_slip                10.1480 # the average slip between issue and retirement
bpred_bimod.lookups            5426 # total number of bpred lookups
bpred_bimod.updates            5313 # total number of updates
bpred_bimod.addr_hits          5060 # total number of address-predicted hits
bpred_bimod.dir_hits           5167 # total number of direction-predicted hits (includes addr-hits)
bpred_bimod.misses              146 # total number of misses
bpred_bimod.jr_hits              82 # total number of address-predicted hits for JR's
bpred_bimod.jr_seen             166 # total number of JR's seen
bpred_bimod.jr_non_ras_hits.PP           40 # total number of address-predicted hits for non-RAS JR's
bpred_bimod.jr_non_ras_seen.PP           84 # total number of non-RAS JR's seen
bpred_bimod.bpred_addr_rate    0.9524 # branch address-prediction rate (i.e., addr-hits/updates)
bpred_bimod.bpred_dir_rate    0.9725 # branch direction-prediction rate (i.e., all-hits/updates)
bpred_bimod.bpred_jr_rate    0.4940 # JR address-prediction rate (i.e., JR addr-hits/JRs seen)
bpred_bimod.bpred_jr_non_ras_rate.PP    0.4762 # non-RAS JR addr-pred rate (ie, non-RAS JR hits/JRs seen)
bpred_bimod.retstack_pushes          103 # total number of address pushed onto ret-addr stack
bpred_bimod.retstack_pops           91 # total number of address popped off of ret-addr stack
bpred_bimod.used_ras.PP           82 # total number of RAS predictions used
bpred_bimod.ras_hits.PP           42 # total number of RAS hits
bpred_bimod.ras_rate.PP    0.5122 # RAS prediction rate (i.e., RAS hits/used RAS)
il1.accesses                  89846 # total number of accesses
il1.hits                      89598 # total number of hits
il1.misses                      248 # total number of misses
il1.replacements                 36 # total number of replacements
il1.writebacks                    0 # total number of writebacks
il1.invalidations                 0 # total number of invalidations
il1.miss_rate                0.0028 # miss rate (i.e., misses/ref)
il1.repl_rate                0.0004 # replacement rate (i.e., repls/ref)
il1.wb_rate                  0.0000 # writeback rate (i.e., wrbks/ref)
il1.inv_rate                 0.0000 # invalidation rate (i.e., invs/ref)
dl1.accesses                  71470 # total number of accesses
dl1.hits                      53789 # total number of hits
dl1.misses                    17681 # total number of misses
dl1.replacements              17169 # total number of replacements
dl1.writebacks                17120 # total number of writebacks
dl1.invalidations                 0 # total number of invalidations
dl1.miss_rate                0.2474 # miss rate (i.e., misses/ref)
dl1.repl_rate                0.2402 # replacement rate (i.e., repls/ref)
dl1.wb_rate                  0.2395 # writeback rate (i.e., wrbks/ref)
dl1.inv_rate                 0.0000 # invalidation rate (i.e., invs/ref)
ul2.accesses                  35049 # total number of accesses
ul2.hits                      26022 # total number of hits
ul2.misses                     9027 # total number of misses
ul2.replacements               4931 # total number of replacements
ul2.writebacks                 4799 # total number of writebacks
ul2.invalidations                 0 # total number of invalidations
ul2.miss_rate                0.2576 # miss rate (i.e., misses/ref)
ul2.repl_rate                0.1407 # replacement rate (i.e., repls/ref)
ul2.wb_rate                  0.1369 # writeback rate (i.e., wrbks/ref)
ul2.inv_rate                 0.0000 # invalidation rate (i.e., invs/ref)
itlb.accesses                 89846 # total number of accesses
itlb.hits                     89836 # total number of hits
itlb.misses                      10 # total number of misses
itlb.replacements                 0 # total number of replacements
itlb.writebacks                   0 # total number of writebacks
itlb.invalidations                0 # total number of invalidations
itlb.miss_rate               0.0001 # miss rate (i.e., misses/ref)
itlb.repl_rate               0.0000 # replacement rate (i.e., repls/ref)
itlb.wb_rate                 0.0000 # writeback rate (i.e., wrbks/ref)
itlb.inv_rate                0.0000 # invalidation rate (i.e., invs/ref)
dtlb.accesses                 71486 # total number of accesses
dtlb.hits                     71327 # total number of hits
dtlb.misses                     159 # total number of misses
dtlb.replacements                31 # total number of replacements
dtlb.writebacks                   0 # total number of writebacks
dtlb.invalidations                0 # total number of invalidations
dtlb.miss_rate               0.0022 # miss rate (i.e., misses/ref)
dtlb.repl_rate               0.0004 # replacement rate (i.e., repls/ref)
dtlb.wb_rate                 0.0000 # writeback rate (i.e., wrbks/ref)
dtlb.inv_rate                0.0000 # invalidation rate (i.e., invs/ref)
rename_power             33721.5600 # total power usage of rename unit
bpred_power             335478.3521 # total power usage of bpred unit
window_power            177845.0418 # total power usage of instruction window
lsq_power                77709.6022 # total power usage of load/store queue
regfile_power           288227.9426 # total power usage of arch. regfile
icache_power            161009.0797 # total power usage of icache
dcache_power            358813.2902 # total power usage of dcache
dcache2_power           227245.5384 # total power usage of dcache2
alu_power              1528178.7667 # total power usage of alu
falu_power             1152198.2765 # total power usage of falu
resultbus_power         185366.3345 # total power usage of resultbus
clock_power            2105550.6159 # total power usage of clock
avg_rename_power             0.6888 # avg power usage of rename unit
avg_bpred_power              6.8522 # avg power usage of bpred unit
avg_window_power             3.6325 # avg power usage of instruction window
avg_lsq_power                1.5872 # avg power usage of lsq
avg_regfile_power            5.8871 # avg power usage of arch. regfile
avg_icache_power             3.2887 # avg power usage of icache
avg_dcache_power             7.3289 # avg power usage of dcache
avg_dcache2_power            4.6415 # avg power usage of dcache2
avg_alu_power               31.2134 # avg power usage of alu
avg_falu_power              23.5339 # avg power usage of falu
avg_resultbus_power          3.7862 # avg power usage of resultbus
avg_clock_power             43.0064 # avg power usage of clock
fetch_stage_power       496487.4318 # total power usage of fetch stage
dispatch_stage_power     33721.5600 # total power usage of dispatch stage
issue_stage_power      2555158.5738 # total power usage of issue stage
avg_fetch_power             10.1409 # average power of fetch unit per cycle
avg_dispatch_power           0.6888 # average power of dispatch unit per cycle
avg_issue_power             52.1898 # average power of issue unit per cycle
total_power            5479146.1240 # total power per cycle
avg_total_power_cycle      111.9130 # average total power per cycle
avg_total_power_cycle_nofp_nod2      83.7375 # average total power per cycle
avg_total_power_insn        61.0014 # average total power per insn
avg_total_power_insn_nofp_nod2      45.6435 # average total power per insn
rename_power_cc1         24738.3594 # total power usage of rename unit_cc1
bpred_power_cc1          36397.1609 # total power usage of bpred unit_cc1
window_power_cc1         79602.8707 # total power usage of instruction window_cc1
lsq_power_cc1             4169.6927 # total power usage of lsq_cc1
regfile_power_cc1        95376.4439 # total power usage of arch. regfile_cc1
icache_power_cc1        126387.2435 # total power usage of icache_cc1
dcache_power_cc1        276101.0936 # total power usage of dcache_cc1
dcache2_power_cc1        79900.6772 # total power usage of dcache2_cc1
alu_power_cc1           281812.0970 # total power usage of alu_cc1
resultbus_power_cc1      43953.7639 # total power usage of resultbus_cc1
clock_power_cc1         508371.6197 # total power usage of clock_cc1
avg_rename_power_cc1         0.5053 # avg power usage of rename unit_cc1
avg_bpred_power_cc1          0.7434 # avg power usage of bpred unit_cc1
avg_window_power_cc1         1.6259 # avg power usage of instruction window_cc1
avg_lsq_power_cc1            0.0852 # avg power usage of lsq_cc1
avg_regfile_power_cc1        1.9481 # avg power usage of arch. regfile_cc1
avg_icache_power_cc1         2.5815 # avg power usage of icache_cc1
avg_dcache_power_cc1         5.6394 # avg power usage of dcache_cc1
avg_dcache2_power_cc1        1.6320 # avg power usage of dcache2_cc1
avg_alu_power_cc1            5.7561 # avg power usage of alu_cc1
avg_resultbus_power_cc1       0.8978 # avg power usage of resultbus_cc1
avg_clock_power_cc1         10.3836 # avg power usage of clock_cc1
fetch_stage_power_cc1   162784.4044 # total power usage of fetch stage_cc1
dispatch_stage_power_cc1   24738.3594 # total power usage of dispatch stage_cc1
issue_stage_power_cc1   765540.1952 # total power usage of issue stage_cc1
avg_fetch_power_cc1          3.3249 # average power of fetch unit per cycle_cc1
avg_dispatch_power_cc1       0.5053 # average power of dispatch unit per cycle_cc1
avg_issue_power_cc1         15.6364 # average power of issue unit per cycle_cc1
total_power_cycle_cc1  1556811.0226 # total power per cycle_cc1
avg_total_power_cycle_cc1      31.7983 # average total power per cycle_cc1
avg_total_power_insn_cc1      17.3326 # average total power per insn_cc1
rename_power_cc2         13765.2451 # total power usage of rename unit_cc2
bpred_power_cc2          18624.2534 # total power usage of bpred unit_cc2
window_power_cc2         59509.2910 # total power usage of instruction window_cc2
lsq_power_cc2             2891.1053 # total power usage of lsq_cc2
regfile_power_cc2        38005.8200 # total power usage of arch. regfile_cc2
icache_power_cc2        126387.2435 # total power usage of icache_cc2
dcache_power_cc2        241706.5917 # total power usage of dcache_cc2
dcache2_power_cc2        77507.6413 # total power usage of dcache2_cc2
alu_power_cc2           151598.7248 # total power usage of alu_cc2
resultbus_power_cc2      24911.8535 # total power usage of resultbus_cc2
clock_power_cc2         340722.9081 # total power usage of clock_cc2
avg_rename_power_cc2         0.2812 # avg power usage of rename unit_cc2
avg_bpred_power_cc2          0.3804 # avg power usage of bpred unit_cc2
avg_window_power_cc2         1.2155 # avg power usage of instruction window_cc2
avg_lsq_power_cc2            0.0591 # avg power usage of instruction lsq_cc2
avg_regfile_power_cc2        0.7763 # avg power usage of arch. regfile_cc2
avg_icache_power_cc2         2.5815 # avg power usage of icache_cc2
avg_dcache_power_cc2         4.9369 # avg power usage of dcache_cc2
avg_dcache2_power_cc2        1.5831 # avg power usage of dcache2_cc2
avg_alu_power_cc2            3.0964 # avg power usage of alu_cc2
avg_resultbus_power_cc2       0.5088 # avg power usage of resultbus_cc2
avg_clock_power_cc2          6.9594 # avg power usage of clock_cc2
fetch_stage_power_cc2   145011.4969 # total power usage of fetch stage_cc2
dispatch_stage_power_cc2   13765.2451 # total power usage of dispatch stage_cc2
issue_stage_power_cc2   558125.2076 # total power usage of issue stage_cc2
avg_fetch_power_cc2          2.9619 # average power of fetch unit per cycle_cc2
avg_dispatch_power_cc2       0.2812 # average power of dispatch unit per cycle_cc2
avg_issue_power_cc2         11.3998 # average power of issue unit per cycle_cc2
total_power_cycle_cc2  1095630.6778 # total power per cycle_cc2
avg_total_power_cycle_cc2      22.3785 # average total power per cycle_cc2
avg_total_power_insn_cc2      12.1981 # average total power per insn_cc2
rename_power_cc3         14663.5652 # total power usage of rename unit_cc3
bpred_power_cc3          48533.0256 # total power usage of bpred unit_cc3
window_power_cc3         63414.8698 # total power usage of instruction window_cc3
lsq_power_cc3             8556.5589 # total power usage of lsq_cc3
regfile_power_cc3        45116.7325 # total power usage of arch. regfile_cc3
icache_power_cc3        129849.4271 # total power usage of icache_cc3
dcache_power_cc3        250039.2298 # total power usage of dcache_cc3
dcache2_power_cc3        92246.7849 # total power usage of dcache2_cc3
alu_power_cc3           276235.3918 # total power usage of alu_cc3
resultbus_power_cc3      30707.8831 # total power usage of resultbus_cc3
clock_power_cc3         485960.8606 # total power usage of clock_cc3
avg_rename_power_cc3         0.2995 # avg power usage of rename unit_cc3
avg_bpred_power_cc3          0.9913 # avg power usage of bpred unit_cc3
avg_window_power_cc3         1.2953 # avg power usage of instruction window_cc3
avg_lsq_power_cc3            0.1748 # avg power usage of instruction lsq_cc3
avg_regfile_power_cc3        0.9215 # avg power usage of arch. regfile_cc3
avg_icache_power_cc3         2.6522 # avg power usage of icache_cc3
avg_dcache_power_cc3         5.1071 # avg power usage of dcache_cc3
avg_dcache2_power_cc3        1.8842 # avg power usage of dcache2_cc3
avg_alu_power_cc3            5.6422 # avg power usage of alu_cc3
avg_resultbus_power_cc3       0.6272 # avg power usage of resultbus_cc3
avg_clock_power_cc3          9.9259 # avg power usage of clock_cc3
fetch_stage_power_cc3   178382.4527 # total power usage of fetch stage_cc3
dispatch_stage_power_cc3   14663.5652 # total power usage of dispatch stage_cc3
issue_stage_power_cc3   721200.7183 # total power usage of issue stage_cc3
avg_fetch_power_cc3          3.6435 # average power of fetch unit per cycle_cc3
avg_dispatch_power_cc3       0.2995 # average power of dispatch unit per cycle_cc3
avg_issue_power_cc3         14.7307 # average power of issue unit per cycle_cc3
total_power_cycle_cc3  1445324.3292 # total power per cycle_cc3
avg_total_power_cycle_cc3      29.5211 # average total power per cycle_cc3
avg_total_power_insn_cc3      16.0913 # average total power per insn_cc3
total_rename_access           89820 # total number accesses of rename unit
total_bpred_access             5313 # total number accesses of bpred unit
total_window_access          324732 # total number accesses of instruction window
total_lsq_access              71507 # total number accesses of load/store queue
total_regfile_access         212382 # total number accesses of arch. regfile
total_icache_access           90501 # total number accesses of icache
total_dcache_access           71470 # total number accesses of dcache
total_dcache2_access          35049 # total number accesses of dcache2
total_alu_access              89285 # total number accesses of alu
total_resultbus_access        85541 # total number accesses of resultbus
avg_rename_access            1.8346 # avg number accesses of rename unit
avg_bpred_access             0.1085 # avg number accesses of bpred unit
avg_window_access            6.6327 # avg number accesses of instruction window
avg_lsq_access               1.4605 # avg number accesses of lsq
avg_regfile_access           4.3380 # avg number accesses of arch. regfile
avg_icache_access            1.8485 # avg number accesses of icache
avg_dcache_access            1.4598 # avg number accesses of dcache
avg_dcache2_access           0.7159 # avg number accesses of dcache2
avg_alu_access               1.8237 # avg number accesses of alu
avg_resultbus_access         1.7472 # avg number accesses of resultbus
max_rename_access                 4 # max number accesses of rename unit
max_bpred_access                  3 # max number accesses of bpred unit
max_window_access                16 # max number accesses of instruction window
max_lsq_access                    4 # max number accesses of load/store queue
max_regfile_access               11 # max number accesses of arch. regfile
max_icache_access                 4 # max number accesses of icache
max_dcache_access                 4 # max number accesses of dcache
max_dcache2_access                4 # max number accesses of dcache2
max_alu_access                    4 # max number accesses of alu
max_resultbus_access              6 # max number accesses of resultbus
max_cycle_power_cc1        189.4176 # maximum cycle power usage of cc1
max_cycle_power_cc2        132.0633 # maximum cycle power usage of cc2
max_cycle_power_cc3        161.0532 # maximum cycle power usage of cc3
total_dvfs_power       3848110.9262 # dvfs total power
avg_dvfs_power_cycle        78.5986 # average dvfs power per cycle
total_dvfs_time              0.0001 # total time (DVFS)
sim_invalid_addrs                 0 # total non-speculative bogus addresses seen (debug var)
ld_text_base           0x0120000000 # program text (code) segment base
ld_text_size                  65536 # program text (code) size in bytes
ld_data_base           0x0140000000 # program initialized data segment base
ld_data_size                 743728 # program init'ed `.data' and uninit'ed `.bss' size in bytes
ld_stack_base          0x011ff9b000 # program stack segment base (highest address in stack)
ld_stack_size                 16384 # program initial stack size
ld_prog_entry          0x0120002050 # program entry point (initial PC)
ld_environ_base        0x011ff97000 # program environment base address address
ld_target_big_endian              0 # target executable endian-ness, non-zero if big endian
mem.page_count                   89 # total number of pages allocated
mem.page_mem                   712k # total size of memory pages allocated
mem.ptab_misses                 586 # total first level page table misses
mem.ptab_accesses           1518518 # total page table accesses
mem.ptab_miss_rate           0.0004 # first level page table miss rate

